<?xml version="1.0" encoding="UTF-8"?>

<!-- generated on 06/05/18 11:57:09 by SUMO netconvert Version 0.32.0
<?xml version="1.0" encoding="UTF-8"?>

<configuration xmlns:xsi="http://www.w3.org/2001/XMLSchema-instance" xsi:noNamespaceSchemaLocation="http://sumo.dlr.de/xsd/netconvertConfiguration.xsd">

    <input>
        <node-files value="cross.nod.xml"/>
        <edge-files value="cross_2lanes.edg.xml"/>
        <connection-files value="cross.con.xml"/>
    </input>

    <output>
        <output-file value="cross_2lanes.net.xml"/>
    </output>

    <processing>
        <lefthand value="true"/>
    </processing>

</configuration>
-->

<net version="0.27" lefthand="true" xmlns:xsi="http://www.w3.org/2001/XMLSchema-instance" xsi:noNamespaceSchemaLocation="http://sumo.dlr.de/xsd/net_file.xsd">

    <location netOffset="510.00,510.00" convBoundary="0.00,-0.00,1020.00,1020.00" origBoundary="-510.00,-510.00,510.00,510.00" projParameter="!"/>

    <edge id=":0_0" function="internal">
        <lane id=":0_0_0" index="0" speed="15.28" length="22.70" shape="501.75,498.65 501.75,521.35"/>
        <lane id=":0_0_1" index="1" speed="15.28" length="22.70" shape="505.05,498.65 505.05,521.35"/>
        <lane id=":0_0_2" index="2" speed="15.28" length="22.70" shape="508.35,498.65 508.35,521.35"/>
    </edge>
    <edge id=":0_3" function="internal">
        <lane id=":0_3_0" index="0" speed="15.28" length="22.70" shape="521.35,501.75 498.65,501.75"/>
        <lane id=":0_3_1" index="1" speed="15.28" length="22.70" shape="521.35,505.05 498.65,505.05"/>
        <lane id=":0_3_2" index="2" speed="15.28" length="22.70" shape="521.35,508.35 498.65,508.35"/>
    </edge>
    <edge id=":0_6" function="internal">
        <lane id=":0_6_0" index="0" speed="15.28" length="22.70" shape="518.25,521.35 518.25,498.65"/>
        <lane id=":0_6_1" index="1" speed="15.28" length="22.70" shape="514.95,521.35 514.95,498.65"/>
        <lane id=":0_6_2" index="2" speed="15.28" length="22.70" shape="511.65,521.35 511.65,498.65"/>
    </edge>
    <edge id=":0_9" function="internal">
        <lane id=":0_9_0" index="0" speed="15.28" length="22.70" shape="498.65,518.25 521.35,518.25"/>
        <lane id=":0_9_1" index="1" speed="15.28" length="22.70" shape="498.65,514.95 521.35,514.95"/>
        <lane id=":0_9_2" index="2" speed="15.28" length="22.70" shape="498.65,511.65 521.35,511.65"/>
    </edge>
    <edge id=":1_0" function="internal">
        <lane id=":1_0_0" index="0" speed="15.28" length="0.10" shape="10.00,501.75 10.00,501.75"/>
        <lane id=":1_0_1" index="1" speed="15.28" length="0.10" shape="10.00,505.05 10.00,505.05"/>
        <lane id=":1_0_2" index="2" speed="15.28" length="0.10" shape="10.00,508.35 10.00,508.35"/>
    </edge>
    <edge id=":1_3" function="internal">
        <lane id=":1_3_0" index="0" speed="15.28" length="2.41" shape="10.00,508.35 8.76,509.18 8.35,510.00"/>
    </edge>
    <edge id=":1_8" function="internal">
        <lane id=":1_8_0" index="0" speed="15.28" length="2.41" shape="8.35,510.00 8.76,510.82 10.00,511.65"/>
    </edge>
    <edge id=":1_4" function="internal">
        <lane id=":1_4_0" index="0" speed="15.28" length="0.10" shape="10.00,518.25 10.00,518.25"/>
        <lane id=":1_4_1" index="1" speed="15.28" length="0.10" shape="10.00,514.95 10.00,514.95"/>
        <lane id=":1_4_2" index="2" speed="15.28" length="0.10" shape="10.00,511.65 10.00,511.65"/>
    </edge>
    <edge id=":1_7" function="internal">
        <lane id=":1_7_0" index="0" speed="15.28" length="2.41" shape="10.00,511.65 11.24,510.82 11.65,510.00"/>
    </edge>
    <edge id=":1_9" function="internal">
        <lane id=":1_9_0" index="0" speed="15.28" length="2.41" shape="11.65,510.00 11.24,509.18 10.00,508.35"/>
    </edge>
    <edge id=":2_0" function="internal">
        <lane id=":2_0_0" index="0" speed="15.28" length="0.10" shape="1010.00,501.75 1010.00,501.75"/>
        <lane id=":2_0_1" index="1" speed="15.28" length="0.10" shape="1010.00,505.05 1010.00,505.05"/>
        <lane id=":2_0_2" index="2" speed="15.28" length="0.10" shape="1010.00,508.35 1010.00,508.35"/>
    </edge>
    <edge id=":2_3" function="internal">
        <lane id=":2_3_0" index="0" speed="15.28" length="2.41" shape="1010.00,508.35 1008.76,509.18 1008.35,510.00"/>
    </edge>
    <edge id=":2_8" function="internal">
        <lane id=":2_8_0" index="0" speed="15.28" length="2.41" shape="1008.35,510.00 1008.76,510.82 1010.00,511.65"/>
    </edge>
    <edge id=":2_4" function="internal">
        <lane id=":2_4_0" index="0" speed="15.28" length="0.10" shape="1010.00,518.25 1010.00,518.25"/>
        <lane id=":2_4_1" index="1" speed="15.28" length="0.10" shape="1010.00,514.95 1010.00,514.95"/>
        <lane id=":2_4_2" index="2" speed="15.28" length="0.10" shape="1010.00,511.65 1010.00,511.65"/>
    </edge>
    <edge id=":2_7" function="internal">
        <lane id=":2_7_0" index="0" speed="15.28" length="2.41" shape="1010.00,511.65 1011.24,510.82 1011.65,510.00"/>
    </edge>
    <edge id=":2_9" function="internal">
        <lane id=":2_9_0" index="0" speed="15.28" length="2.41" shape="1011.65,510.00 1011.24,509.18 1010.00,508.35"/>
    </edge>
    <edge id=":3_0" function="internal">
        <lane id=":3_0_0" index="0" speed="15.28" length="0.10" shape="501.75,10.00 501.75,10.00"/>
        <lane id=":3_0_1" index="1" speed="15.28" length="0.10" shape="505.05,10.00 505.05,10.00"/>
        <lane id=":3_0_2" index="2" speed="15.28" length="0.10" shape="508.35,10.00 508.35,10.00"/>
    </edge>
    <edge id=":3_3" function="internal">
        <lane id=":3_3_0" index="0" speed="15.28" length="2.41" shape="508.35,10.00 509.18,11.24 510.00,11.65"/>
    </edge>
    <edge id=":3_8" function="internal">
        <lane id=":3_8_0" index="0" speed="15.28" length="2.41" shape="510.00,11.65 510.82,11.24 511.65,10.00"/>
    </edge>
    <edge id=":3_4" function="internal">
        <lane id=":3_4_0" index="0" speed="15.28" length="0.10" shape="518.25,10.00 518.25,10.00"/>
        <lane id=":3_4_1" index="1" speed="15.28" length="0.10" shape="514.95,10.00 514.95,10.00"/>
        <lane id=":3_4_2" index="2" speed="15.28" length="0.10" shape="511.65,10.00 511.65,10.00"/>
    </edge>
    <edge id=":3_7" function="internal">
        <lane id=":3_7_0" index="0" speed="15.28" length="2.41" shape="511.65,10.00 510.82,8.76 510.00,8.35"/>
    </edge>
    <edge id=":3_9" function="internal">
        <lane id=":3_9_0" index="0" speed="15.28" length="2.41" shape="510.00,8.35 509.18,8.76 508.35,10.00"/>
    </edge>
    <edge id=":4_0" function="internal">
        <lane id=":4_0_0" index="0" speed="15.28" length="0.10" shape="501.75,1010.00 501.75,1010.00"/>
        <lane id=":4_0_1" index="1" speed="15.28" length="0.10" shape="505.05,1010.00 505.05,1010.00"/>
        <lane id=":4_0_2" index="2" speed="15.28" length="0.10" shape="508.35,1010.00 508.35,1010.00"/>
    </edge>
    <edge id=":4_3" function="internal">
        <lane id=":4_3_0" index="0" speed="15.28" length="2.41" shape="508.35,1010.00 509.18,1011.24 510.00,1011.65"/>
    </edge>
    <edge id=":4_8" function="internal">
        <lane id=":4_8_0" index="0" speed="15.28" length="2.41" shape="510.00,1011.65 510.82,1011.24 511.65,1010.00"/>
    </edge>
    <edge id=":4_4" function="internal">
        <lane id=":4_4_0" index="0" speed="15.28" length="0.10" shape="518.25,1010.00 518.25,1010.00"/>
        <lane id=":4_4_1" index="1" speed="15.28" length="0.10" shape="514.95,1010.00 514.95,1010.00"/>
        <lane id=":4_4_2" index="2" speed="15.28" length="0.10" shape="511.65,1010.00 511.65,1010.00"/>
    </edge>
    <edge id=":4_7" function="internal">
        <lane id=":4_7_0" index="0" speed="15.28" length="2.41" shape="511.65,1010.00 510.82,1008.76 510.00,1008.35"/>
    </edge>
    <edge id=":4_9" function="internal">
        <lane id=":4_9_0" index="0" speed="15.28" length="2.41" shape="510.00,1008.35 509.18,1008.76 508.35,1010.00"/>
    </edge>
    <edge id=":51_0" function="internal">
        <lane id=":51_0_0" index="0" speed="15.28" length="4.82" shape="0.00,508.35 -1.24,509.18 -1.65,510.00 -1.24,510.82 0.00,511.65"/>
    </edge>
    <edge id=":52_0" function="internal">
        <lane id=":52_0_0" index="0" speed="15.28" length="4.82" shape="1020.00,511.65 1021.24,510.82 1021.65,510.00 1021.24,509.18 1020.00,508.35"/>
    </edge>
    <edge id=":53_0" function="internal">
        <lane id=":53_0_0" index="0" speed="15.28" length="4.82" shape="511.65,-0.00 510.82,-1.24 510.00,-1.65 509.18,-1.24 508.35,-0.00"/>
    </edge>
    <edge id=":54_0" function="internal">
        <lane id=":54_0_0" index="0" speed="15.28" length="4.82" shape="508.35,1020.00 509.18,1021.24 510.00,1021.65 510.82,1021.24 511.65,1020.00"/>
    </edge>

    <edge id="1i" from="1" to="0" priority="78">
        <lane id="1i_0" index="0" speed="19.44" length="488.65" shape="10.00,518.25 498.65,518.25"/>
        <lane id="1i_1" index="1" speed="19.44" length="488.65" shape="10.00,514.95 498.65,514.95"/>
        <lane id="1i_2" index="2" speed="19.44" length="488.65" shape="10.00,511.65 498.65,511.65"/>
    </edge>
    <edge id="1o" from="0" to="1" priority="46">
        <lane id="1o_0" index="0" speed="11.11" length="488.65" shape="498.65,501.75 10.00,501.75"/>
        <lane id="1o_1" index="1" speed="11.11" length="488.65" shape="498.65,505.05 10.00,505.05"/>
        <lane id="1o_2" index="2" speed="11.11" length="488.65" shape="498.65,508.35 10.00,508.35"/>
    </edge>
    <edge id="2i" from="2" to="0" priority="78">
        <lane id="2i_0" index="0" speed="19.44" length="488.65" shape="1010.00,501.75 521.35,501.75"/>
        <lane id="2i_1" index="1" speed="19.44" length="488.65" shape="1010.00,505.05 521.35,505.05"/>
        <lane id="2i_2" index="2" speed="19.44" length="488.65" shape="1010.00,508.35 521.35,508.35"/>
    </edge>
    <edge id="2o" from="0" to="2" priority="46">
        <lane id="2o_0" index="0" speed="11.11" length="488.65" shape="521.35,518.25 1010.00,518.25"/>
        <lane id="2o_1" index="1" speed="11.11" length="488.65" shape="521.35,514.95 1010.00,514.95"/>
        <lane id="2o_2" index="2" speed="11.11" length="488.65" shape="521.35,511.65 1010.00,511.65"/>
    </edge>
    <edge id="3i" from="3" to="0" priority="78">
        <lane id="3i_0" index="0" speed="19.44" length="488.65" shape="501.75,10.00 501.75,498.65"/>
        <lane id="3i_1" index="1" speed="19.44" length="488.65" shape="505.05,10.00 505.05,498.65"/>
        <lane id="3i_2" index="2" speed="19.44" length="488.65" shape="508.35,10.00 508.35,498.65"/>
    </edge>
    <edge id="3o" from="0" to="3" priority="46">
        <lane id="3o_0" index="0" speed="11.11" length="488.65" shape="518.25,498.65 518.25,10.00"/>
        <lane id="3o_1" index="1" speed="11.11" length="488.65" shape="514.95,498.65 514.95,10.00"/>
        <lane id="3o_2" index="2" speed="11.11" length="488.65" shape="511.65,498.65 511.65,10.00"/>
    </edge>
    <edge id="4i" from="4" to="0" priority="78">
        <lane id="4i_0" index="0" speed="19.44" length="488.65" shape="518.25,1010.00 518.25,521.35"/>
        <lane id="4i_1" index="1" speed="19.44" length="488.65" shape="514.95,1010.00 514.95,521.35"/>
        <lane id="4i_2" index="2" speed="19.44" length="488.65" shape="511.65,1010.00 511.65,521.35"/>
    </edge>
    <edge id="4o" from="0" to="4" priority="46">
        <lane id="4o_0" index="0" speed="11.11" length="488.65" shape="501.75,521.35 501.75,1010.00"/>
        <lane id="4o_1" index="1" speed="11.11" length="488.65" shape="505.05,521.35 505.05,1010.00"/>
        <lane id="4o_2" index="2" speed="11.11" length="488.65" shape="508.35,521.35 508.35,1010.00"/>
    </edge>
    <edge id="51i" from="1" to="51" priority="78">
        <lane id="51i_0" index="0" speed="19.44" length="10.00" shape="10.00,501.75 0.00,501.75"/>
        <lane id="51i_1" index="1" speed="19.44" length="10.00" shape="10.00,505.05 0.00,505.05"/>
        <lane id="51i_2" index="2" speed="19.44" length="10.00" shape="10.00,508.35 0.00,508.35"/>
    </edge>
    <edge id="51o" from="51" to="1" priority="46">
        <lane id="51o_0" index="0" speed="11.11" length="10.00" shape="0.00,518.25 10.00,518.25"/>
        <lane id="51o_1" index="1" speed="11.11" length="10.00" shape="0.00,514.95 10.00,514.95"/>
        <lane id="51o_2" index="2" speed="11.11" length="10.00" shape="0.00,511.65 10.00,511.65"/>
    </edge>
    <edge id="52i" from="2" to="52" priority="78">
        <lane id="52i_0" index="0" speed="19.44" length="10.00" shape="1010.00,518.25 1020.00,518.25"/>
        <lane id="52i_1" index="1" speed="19.44" length="10.00" shape="1010.00,514.95 1020.00,514.95"/>
        <lane id="52i_2" index="2" speed="19.44" length="10.00" shape="1010.00,511.65 1020.00,511.65"/>
    </edge>
    <edge id="52o" from="52" to="2" priority="46">
        <lane id="52o_0" index="0" speed="11.11" length="10.00" shape="1020.00,501.75 1010.00,501.75"/>
        <lane id="52o_1" index="1" speed="11.11" length="10.00" shape="1020.00,505.05 1010.00,505.05"/>
        <lane id="52o_2" index="2" speed="11.11" length="10.00" shape="1020.00,508.35 1010.00,508.35"/>
    </edge>
    <edge id="53i" from="3" to="53" priority="78">
        <lane id="53i_0" index="0" speed="19.44" length="10.00" shape="518.25,10.00 518.25,-0.00"/>
        <lane id="53i_1" index="1" speed="19.44" length="10.00" shape="514.95,10.00 514.95,-0.00"/>
        <lane id="53i_2" index="2" speed="19.44" length="10.00" shape="511.65,10.00 511.65,-0.00"/>
    </edge>
    <edge id="53o" from="53" to="3" priority="46">
        <lane id="53o_0" index="0" speed="11.11" length="10.00" shape="501.75,-0.00 501.75,10.00"/>
        <lane id="53o_1" index="1" speed="11.11" length="10.00" shape="505.05,-0.00 505.05,10.00"/>
        <lane id="53o_2" index="2" speed="11.11" length="10.00" shape="508.35,-0.00 508.35,10.00"/>
    </edge>
    <edge id="54i" from="4" to="54" priority="78">
        <lane id="54i_0" index="0" speed="19.44" length="10.00" shape="501.75,1010.00 501.75,1020.00"/>
        <lane id="54i_1" index="1" speed="19.44" length="10.00" shape="505.05,1010.00 505.05,1020.00"/>
        <lane id="54i_2" index="2" speed="19.44" length="10.00" shape="508.35,1010.00 508.35,1020.00"/>
    </edge>
    <edge id="54o" from="54" to="4" priority="46">
        <lane id="54o_0" index="0" speed="11.11" length="10.00" shape="518.25,1020.00 518.25,1010.00"/>
        <lane id="54o_1" index="1" speed="11.11" length="10.00" shape="514.95,1020.00 514.95,1010.00"/>
        <lane id="54o_2" index="2" speed="11.11" length="10.00" shape="511.65,1020.00 511.65,1010.00"/>
    </edge>

    <tlLogic id="0" type="static" programID="0" offset="0">
        <phase duration="40" state="GGGrrrGGGrrr"/>
        <phase duration="5" state="yyyrrryyyrrr"/>
        <phase duration="40" state="rrrGGGrrrGGG"/>
        <phase duration="5" state="rrryyyrrryyy"/>
    </tlLogic>

    <junction id="0" type="traffic_light" x="510.00" y="510.00" incLanes="3i_0 3i_1 3i_2 2i_0 2i_1 2i_2 4i_0 4i_1 4i_2 1i_0 1i_1 1i_2" intLanes=":0_0_0 :0_0_1 :0_0_2 :0_3_0 :0_3_1 :0_3_2 :0_6_0 :0_6_1 :0_6_2 :0_9_0 :0_9_1 :0_9_2" shape="500.15,498.65 519.85,498.65 521.35,500.15 521.35,519.85 519.85,521.35 500.15,521.35 498.65,519.85 498.65,500.15">
        <request index="0" response="000000000000" foes="111000111000" cont="0"/>
        <request index="1" response="000000000000" foes="111000111000" cont="0"/>
        <request index="2" response="000000000000" foes="111000111000" cont="0"/>
        <request index="3" response="000111000111" foes="000111000111" cont="0"/>
        <request index="4" response="000111000111" foes="000111000111" cont="0"/>
        <request index="5" response="000111000111" foes="000111000111" cont="0"/>
        <request index="6" response="000000000000" foes="111000111000" cont="0"/>
        <request index="7" response="000000000000" foes="111000111000" cont="0"/>
        <request index="8" response="000000000000" foes="111000111000" cont="0"/>
        <request index="9" response="000111000111" foes="000111000111" cont="0"/>
        <request index="10" response="000111000111" foes="000111000111" cont="0"/>
        <request index="11" response="000111000111" foes="000111000111" cont="0"/>
    </junction>
    <junction id="1" type="priority" x="10.00" y="510.00" incLanes="1o_0 1o_1 1o_2 51o_0 51o_1 51o_2" intLanes=":1_0_0 :1_0_1 :1_0_2 :1_8_0 :1_4_0 :1_4_1 :1_4_2 :1_9_0" shape="10.00,500.15 10.00,519.85 10.00,500.15">
        <request index="0" response="00000000" foes="10000000" cont="0"/>
        <request index="1" response="00000000" foes="10000000" cont="0"/>
        <request index="2" response="00000000" foes="10000000" cont="0"/>
        <request index="3" response="01110000" foes="01110000" cont="1"/>
        <request index="4" response="00000000" foes="00001000" cont="0"/>
        <request index="5" response="00000000" foes="00001000" cont="0"/>
        <request index="6" response="00000000" foes="00001000" cont="0"/>
        <request index="7" response="00000111" foes="00000111" cont="1"/>
    </junction>
    <junction id="2" type="priority" x="1010.00" y="510.00" incLanes="52o_0 52o_1 52o_2 2o_0 2o_1 2o_2" intLanes=":2_0_0 :2_0_1 :2_0_2 :2_8_0 :2_4_0 :2_4_1 :2_4_2 :2_9_0" shape="1010.00,500.15 1010.00,519.85 1010.00,500.15">
        <request index="0" response="00000000" foes="10000000" cont="0"/>
        <request index="1" response="00000000" foes="10000000" cont="0"/>
        <request index="2" response="00000000" foes="10000000" cont="0"/>
        <request index="3" response="01110000" foes="01110000" cont="1"/>
        <request index="4" response="00000000" foes="00001000" cont="0"/>
        <request index="5" response="00000000" foes="00001000" cont="0"/>
        <request index="6" response="00000000" foes="00001000" cont="0"/>
        <request index="7" response="00000111" foes="00000111" cont="1"/>
    </junction>
    <junction id="3" type="priority" x="510.00" y="10.00" incLanes="53o_0 53o_1 53o_2 3o_0 3o_1 3o_2" intLanes=":3_0_0 :3_0_1 :3_0_2 :3_8_0 :3_4_0 :3_4_1 :3_4_2 :3_9_0" shape="500.15,10.00 519.85,10.00 500.15,10.00">
        <request index="0" response="00000000" foes="10000000" cont="0"/>
        <request index="1" response="00000000" foes="10000000" cont="0"/>
        <request index="2" response="00000000" foes="10000000" cont="0"/>
        <request index="3" response="01110000" foes="01110000" cont="1"/>
        <request index="4" response="00000000" foes="00001000" cont="0"/>
        <request index="5" response="00000000" foes="00001000" cont="0"/>
        <request index="6" response="00000000" foes="00001000" cont="0"/>
        <request index="7" response="00000111" foes="00000111" cont="1"/>
    </junction>
    <junction id="4" type="priority" x="510.00" y="1010.00" incLanes="4o_0 4o_1 4o_2 54o_0 54o_1 54o_2" intLanes=":4_0_0 :4_0_1 :4_0_2 :4_8_0 :4_4_0 :4_4_1 :4_4_2 :4_9_0" shape="500.15,1010.00 519.85,1010.00 500.15,1010.00">
        <request index="0" response="00000000" foes="10000000" cont="0"/>
        <request index="1" response="00000000" foes="10000000" cont="0"/>
        <request index="2" response="00000000" foes="10000000" cont="0"/>
        <request index="3" response="01110000" foes="01110000" cont="1"/>
        <request index="4" response="00000000" foes="00001000" cont="0"/>
        <request index="5" response="00000000" foes="00001000" cont="0"/>
        <request index="6" response="00000000" foes="00001000" cont="0"/>
        <request index="7" response="00000111" foes="00000111" cont="1"/>
    </junction>
    <junction id="51" type="priority" x="0.00" y="510.00" incLanes="51i_0 51i_1 51i_2" intLanes=":51_0_0" shape="0.00,510.05 0.00,500.15 0.00,509.95">
        <request index="0" response="0" foes="0" cont="0"/>
    </junction>
    <junction id="52" type="priority" x="1020.00" y="510.00" incLanes="52i_0 52i_1 52i_2" intLanes=":52_0_0" shape="1020.00,509.95 1020.00,519.85 1020.00,510.05">
        <request index="0" response="0" foes="0" cont="0"/>
    </junction>
    <junction id="53" type="priority" x="510.00" y="-0.00" incLanes="53i_0 53i_1 53i_2" intLanes=":53_0_0" shape="509.95,-0.00 519.85,-0.00 510.05,-0.00">
        <request index="0" response="0" foes="0" cont="0"/>
    </junction>
    <junction id="54" type="priority" x="510.00" y="1020.00" incLanes="54i_0 54i_1 54i_2" intLanes=":54_0_0" shape="510.05,1020.00 500.15,1020.00 509.95,1020.00">
        <request index="0" response="0" foes="0" cont="0"/>
    </junction>

    <junction id=":1_8_0" type="internal" x="8.35" y="510.00" incLanes=":1_3_0 51o_0 51o_1 51o_2" intLanes=":1_4_0 :1_4_1 :1_4_2"/>
    <junction id=":1_9_0" type="internal" x="11.65" y="510.00" incLanes=":1_7_0 1o_0 1o_1 1o_2" intLanes=":1_0_0 :1_0_1 :1_0_2"/>
    <junction id=":2_8_0" type="internal" x="1008.35" y="510.00" incLanes=":2_3_0 2o_0 2o_1 2o_2" intLanes=":2_4_0 :2_4_1 :2_4_2"/>
    <junction id=":2_9_0" type="internal" x="1011.65" y="510.00" incLanes=":2_7_0 52o_0 52o_1 52o_2" intLanes=":2_0_0 :2_0_1 :2_0_2"/>
    <junction id=":3_8_0" type="internal" x="510.00" y="11.65" incLanes=":3_3_0 3o_0 3o_1 3o_2" intLanes=":3_4_0 :3_4_1 :3_4_2"/>
    <junction id=":3_9_0" type="internal" x="510.00" y="8.35" incLanes=":3_7_0 53o_0 53o_1 53o_2" intLanes=":3_0_0 :3_0_1 :3_0_2"/>
    <junction id=":4_8_0" type="internal" x="510.00" y="1011.65" incLanes=":4_3_0 54o_0 54o_1 54o_2" intLanes=":4_4_0 :4_4_1 :4_4_2"/>
    <junction id=":4_9_0" type="internal" x="510.00" y="1008.35" incLanes=":4_7_0 4o_0 4o_1 4o_2" intLanes=":4_0_0 :4_0_1 :4_0_2"/>

    <connection from="1i" to="2o" fromLane="0" toLane="0" via=":0_9_0" tl="0" linkIndex="9" dir="s" state="o"/>
    <connection from="1i" to="2o" fromLane="1" toLane="1" via=":0_9_1" tl="0" linkIndex="10" dir="s" state="o"/>
    <connection from="1i" to="2o" fromLane="2" toLane="2" via=":0_9_2" tl="0" linkIndex="11" dir="s" state="o"/>
    <connection from="1o" to="51i" fromLane="0" toLane="0" via=":1_0_0" dir="s" state="M"/>
    <connection from="1o" to="51i" fromLane="1" toLane="1" via=":1_0_1" dir="s" state="M"/>
    <connection from="1o" to="51i" fromLane="2" toLane="2" via=":1_0_2" dir="s" state="M"/>
    <connection from="1o" to="1i" fromLane="2" toLane="2" via=":1_3_0" dir="T" state="m"/>
    <connection from="2i" to="1o" fromLane="0" toLane="0" via=":0_3_0" tl="0" linkIndex="3" dir="s" state="o"/>
    <connection from="2i" to="1o" fromLane="1" toLane="1" via=":0_3_1" tl="0" linkIndex="4" dir="s" state="o"/>
    <connection from="2i" to="1o" fromLane="2" toLane="2" via=":0_3_2" tl="0" linkIndex="5" dir="s" state="o"/>
    <connection from="2o" to="52i" fromLane="0" toLane="0" via=":2_4_0" dir="s" state="M"/>
    <connection from="2o" to="52i" fromLane="1" toLane="1" via=":2_4_1" dir="s" state="M"/>
    <connection from="2o" to="52i" fromLane="2" toLane="2" via=":2_4_2" dir="s" state="M"/>
    <connection from="2o" to="2i" fromLane="2" toLane="2" via=":2_7_0" dir="T" state="m"/>
    <connection from="3i" to="4o" fromLane="0" toLane="0" via=":0_0_0" tl="0" linkIndex="0" dir="s" state="o"/>
    <connection from="3i" to="4o" fromLane="1" toLane="1" via=":0_0_1" tl="0" linkIndex="1" dir="s" state="o"/>
    <connection from="3i" to="4o" fromLane="2" toLane="2" via=":0_0_2" tl="0" linkIndex="2" dir="s" state="o"/>
    <connection from="3o" to="53i" fromLane="0" toLane="0" via=":3_4_0" dir="s" state="M"/>
    <connection from="3o" to="53i" fromLane="1" toLane="1" via=":3_4_1" dir="s" state="M"/>
    <connection from="3o" to="53i" fromLane="2" toLane="2" via=":3_4_2" dir="s" state="M"/>
    <connection from="3o" to="3i" fromLane="2" toLane="2" via=":3_7_0" dir="T" state="m"/>
    <connection from="4i" to="3o" fromLane="0" toLane="0" via=":0_6_0" tl="0" linkIndex="6" dir="s" state="o"/>
    <connection from="4i" to="3o" fromLane="1" toLane="1" via=":0_6_1" tl="0" linkIndex="7" dir="s" state="o"/>
    <connection from="4i" to="3o" fromLane="2" toLane="2" via=":0_6_2" tl="0" linkIndex="8" dir="s" state="o"/>
    <connection from="4o" to="54i" fromLane="0" toLane="0" via=":4_0_0" dir="s" state="M"/>
    <connection from="4o" to="54i" fromLane="1" toLane="1" via=":4_0_1" dir="s" state="M"/>
    <connection from="4o" to="54i" fromLane="2" toLane="2" via=":4_0_2" dir="s" state="M"/>
    <connection from="4o" to="4i" fromLane="2" toLane="2" via=":4_3_0" dir="T" state="m"/>
    <connection from="51i" to="51o" fromLane="2" toLane="2" via=":51_0_0" dir="T" state="M"/>
    <connection from="51o" to="1i" fromLane="0" toLane="0" via=":1_4_0" dir="s" state="M"/>
    <connection from="51o" to="1i" fromLane="1" toLane="1" via=":1_4_1" dir="s" state="M"/>
    <connection from="51o" to="1i" fromLane="2" toLane="2" via=":1_4_2" dir="s" state="M"/>
    <connection from="51o" to="51i" fromLane="2" toLane="2" via=":1_7_0" dir="T" state="m"/>
    <connection from="52i" to="52o" fromLane="2" toLane="2" via=":52_0_0" dir="T" state="M"/>
    <connection from="52o" to="2i" fromLane="0" toLane="0" via=":2_0_0" dir="s" state="M"/>
    <connection from="52o" to="2i" fromLane="1" toLane="1" via=":2_0_1" dir="s" state="M"/>
    <connection from="52o" to="2i" fromLane="2" toLane="2" via=":2_0_2" dir="s" state="M"/>
    <connection from="52o" to="52i" fromLane="2" toLane="2" via=":2_3_0" dir="T" state="m"/>
    <connection from="53i" to="53o" fromLane="2" toLane="2" via=":53_0_0" dir="T" state="M"/>
    <connection from="53o" to="3i" fromLane="0" toLane="0" via=":3_0_0" dir="s" state="M"/>
    <connection from="53o" to="3i" fromLane="1" toLane="1" via=":3_0_1" dir="s" state="M"/>
    <connection from="53o" to="3i" fromLane="2" toLane="2" via=":3_0_2" dir="s" state="M"/>
    <connection from="53o" to="53i" fromLane="2" toLane="2" via=":3_3_0" dir="T" state="m"/>
    <connection from="54i" to="54o" fromLane="2" toLane="2" via=":54_0_0" dir="T" state="M"/>
    <connection from="54o" to="4i" fromLane="0" toLane="0" via=":4_4_0" dir="s" state="M"/>
    <connection from="54o" to="4i" fromLane="1" toLane="1" via=":4_4_1" dir="s" state="M"/>
    <connection from="54o" to="4i" fromLane="2" toLane="2" via=":4_4_2" dir="s" state="M"/>
    <connection from="54o" to="54i" fromLane="2" toLane="2" via=":4_7_0" dir="T" state="m"/>

    <connection from=":0_0" to="4o" fromLane="0" toLane="0" dir="s" state="M"/>
    <connection from=":0_0" to="4o" fromLane="1" toLane="1" dir="s" state="M"/>
    <connection from=":0_0" to="4o" fromLane="2" toLane="2" dir="s" state="M"/>
    <connection from=":0_3" to="1o" fromLane="0" toLane="0" dir="s" state="M"/>
    <connection from=":0_3" to="1o" fromLane="1" toLane="1" dir="s" state="M"/>
    <connection from=":0_3" to="1o" fromLane="2" toLane="2" dir="s" state="M"/>
    <connection from=":0_6" to="3o" fromLane="0" toLane="0" dir="s" state="M"/>
    <connection from=":0_6" to="3o" fromLane="1" toLane="1" dir="s" state="M"/>
    <connection from=":0_6" to="3o" fromLane="2" toLane="2" dir="s" state="M"/>
    <connection from=":0_9" to="2o" fromLane="0" toLane="0" dir="s" state="M"/>
    <connection from=":0_9" to="2o" fromLane="1" toLane="1" dir="s" state="M"/>
    <connection from=":0_9" to="2o" fromLane="2" toLane="2" dir="s" state="M"/>
    <connection from=":1_0" to="51i" fromLane="0" toLane="0" dir="s" state="M"/>
    <connection from=":1_0" to="51i" fromLane="1" toLane="1" dir="s" state="M"/>
    <connection from=":1_0" to="51i" fromLane="2" toLane="2" dir="s" state="M"/>
    <connection from=":1_3" to="1i" fromLane="0" toLane="2" via=":1_8_0" dir="T" state="m"/>
    <connection from=":1_8" to="1i" fromLane="0" toLane="2" dir="T" state="M"/>
    <connection from=":1_4" to="1i" fromLane="0" toLane="0" dir="s" state="M"/>
    <connection from=":1_4" to="1i" fromLane="1" toLane="1" dir="s" state="M"/>
    <connection from=":1_4" to="1i" fromLane="2" toLane="2" dir="s" state="M"/>
    <connection from=":1_7" to="51i" fromLane="0" toLane="2" via=":1_9_0" dir="T" state="m"/>
    <connection from=":1_9" to="51i" fromLane="0" toLane="2" dir="T" state="M"/>
    <connection from=":2_0" to="2i" fromLane="0" toLane="0" dir="s" state="M"/>
    <connection from=":2_0" to="2i" fromLane="1" toLane="1" dir="s" state="M"/>
    <connection from=":2_0" to="2i" fromLane="2" toLane="2" dir="s" state="M"/>
    <connection from=":2_3" to="52i" fromLane="0" toLane="2" via=":2_8_0" dir="T" state="m"/>
    <connection from=":2_8" to="52i" fromLane="0" toLane="2" dir="T" state="M"/>
    <connection from=":2_4" to="52i" fromLane="0" toLane="0" dir="s" state="M"/>
    <connection from=":2_4" to="52i" fromLane="1" toLane="1" dir="s" state="M"/>
    <connection from=":2_4" to="52i" fromLane="2" toLane="2" dir="s" state="M"/>
    <connection from=":2_7" to="2i" fromLane="0" toLane="2" via=":2_9_0" dir="T" state="m"/>
    <connection from=":2_9" to="2i" fromLane="0" toLane="2" dir="T" state="M"/>
    <connection from=":3_0" to="3i" fromLane="0" toLane="0" dir="s" state="M"/>
    <connection from=":3_0" to="3i" fromLane="1" toLane="1" dir="s" state="M"/>
    <connection from=":3_0" to="3i" fromLane="2" toLane="2" dir="s" state="M"/>
    <connection from=":3_3" to="53i" fromLane="0" toLane="2" via=":3_8_0" dir="T" state="m"/>
    <connection from=":3_8" to="53i" fromLane="0" toLane="2" dir="T" state="M"/>
    <connection from=":3_4" to="53i" fromLane="0" toLane="0" dir="s" state="M"/>
    <connection from=":3_4" to="53i" fromLane="1" toLane="1" dir="s" state="M"/>
    <connection from=":3_4" to="53i" fromLane="2" toLane="2" dir="s" state="M"/>