<routes>
    <vTypeDistribution id="mixed">
        <vType id="car" vClass="passenger" speedDev="0.2" latAlignment="compact" probability="0.3"/>
        <vType id="moped" vClass="moped" speedDev="0.4" latAlignment="compact" probability="0.7"/>
    </vTypeDistribution>

    <route id="r0" edges="51o 1i 2o 52i"/>
    <route id="r1" edges="51o 1i 4o 54i"/>
    <route id="r2" edges="51o 1i 3o 53i"/>
    <route id="r3" edges="54o 4i 3o 53i"/>
    <route id="r4" edges="54o 4i 1o 51i"/>
    <route id="r5" edges="54o 4i 2o 52i"/>
    <route id="r6" edges="52o 2i 1o 51i"/>
    <route id="r7" edges="52o 2i 4o 54i"/>
    <route id="r8" edges="52o 2i 3o 53i"/>
    <route id="r9" edges="53o 3i 4o 54i"/>
    <route id="r10" edges="53o 3i 1o 51i"/>
    <route id="r11" edges="53o 3i 2o 52i"/>
    <flow id="mixed1" begin="0" end="1500" number="100" route="r0" type="mixed" departLane="random" departPosLat="random"/>
    <flow id="mixed2" begin="0" end="1500" number="100" route="r1" type="mixed" departLane="random" departPosLat="random"/>
    <flow id="mixed3" begin="0" end="1500" number="100" route="r2" type="mixed" departLane="random" departPosLat="random"/>
    <flow id="mixed4" begin="0" end="1500" number="100" route="r3" type="mixed" departLane="random" departPosLat="random"/>
    <flow id="mixed5" begin="0" end="1500" number="100" route="r4" type="mixed" departLane="random" departPosLat="random"/>
    <flow id="mixed6" begin="0" end="1500" number="100" route="r5" type="mixed" departLane="random" departPosLat="random"/>
    <flow id="mixed7" begin="0" end="1500" number="100" route="r6" type="mixed" departLane="random" departPosLat="random"/>
    <flow id="mixed8" begin="0" end="1500" number="100" route="r7" type="mixed" departLane="random" departPosLat="random"/>
    <flow id="mixed9" begin="0" end="1500" number="100" route="r8" type="mixed" departLane="random" departPosLat="random"/>
    <flow id="mixed10" begin="0" end="1500" number="100" route="r9" type="mixed" departLane="random" departPosLat="random"/>
    <flow id="mixed11" begin="0" end="1500" number="100" route="r10" type="mixed" departLane="random" departPosLat="random"/>
    <flow id="mixed12" begin="0" end="1500" number="100" route="r11" type="mixed" departLane="random" departPosLat="random"/>
</routes>
