<routes>
    <vTypeDistribution id="mixed">
        <vType id="car" vClass="passenger" speedDev="0.2" latAlignment="compact" probability="0.3"/>
        <vType id="moped" vClass="moped" speedDev="0.4" latAlignment="compact" probability="0.7"/>
    </vTypeDistribution>

    <route id="r0" edges="51o 1i 2o 52i"/>
    <route id="r1" edges="54o 4i 3o 53i"/>
    <route id="r2" edges="52o 2i 1o 51i"/>
    <flow id="mixed1" begin="0" end="100" number="100" route="r0" type="mixed" departLane="random" departPosLat="random"/>
    <flow id="mixed2" begin="0" end="100" number="100" route="r1" type="mixed" departLane="random" departPosLat="random"/>
    <flow id="mixed3" begin="0" end="100" number="100" route="r2" type="mixed" departLane="random" departPosLat="random"/>
</routes>
