<?xml version="1.0" encoding="UTF-8"?>

<!-- generated on Sat Jan 12 14:40:48 2019 by SUMO netconvert Version 0.32.0
<?xml version="1.0" encoding="UTF-8"?>

<configuration xmlns:xsi="http://www.w3.org/2001/XMLSchema-instance" xsi:noNamespaceSchemaLocation="http://sumo.dlr.de/xsd/netconvertConfiguration.xsd">

    <input>
        <node-files value="cross_multi.nod.xml"/>
        <edge-files value="cross_multi.edg.xml"/>
        <connection-files value="corss_multi.con.xml"/>
    </input>

    <output>
        <output-file value="cross_multi.net.xml"/>
    </output>

    <processing>
        <lefthand value="true"/>
    </processing>

</configuration>
-->

<net version="0.27" lefthand="true" xmlns:xsi="http://www.w3.org/2001/XMLSchema-instance" xsi:noNamespaceSchemaLocation="http://sumo.dlr.de/xsd/net_file.xsd">

    <location netOffset="510.00,510.00" convBoundary="0.00,-0.00,1120.00,1120.00" origBoundary="-510.00,-510.00,610.00,610.00" projParameter="!"/>

    <edge id=":0_0" function="internal">
        <lane id=":0_0_0" index="0" speed="15.28" length="5.00" shape="501.75,498.65 501.56,500.01 500.98,500.98 500.01,501.56 498.65,501.75"/>
    </edge>
    <edge id=":0_1" function="internal">
        <lane id=":0_1_0" index="0" speed="19.44" length="22.70" shape="501.75,498.65 501.75,521.35"/>
        <lane id=":0_1_1" index="1" speed="19.44" length="22.70" shape="505.05,498.65 505.05,521.35"/>
        <lane id=":0_1_2" index="2" speed="19.44" length="22.70" shape="508.35,498.65 508.35,521.35"/>
    </edge>
    <edge id=":0_4" function="internal">
        <lane id=":0_4_0" index="0" speed="19.44" length="7.47" shape="508.35,498.65 509.16,504.34 510.05,505.82"/>
    </edge>
    <edge id=":0_21" function="internal">
        <lane id=":0_21_0" index="0" speed="19.44" length="13.50" shape="510.05,505.82 511.60,508.40 515.66,510.84 521.35,511.65"/>
    </edge>
    <edge id=":0_5" function="internal">
        <lane id=":0_5_0" index="0" speed="15.28" length="5.00" shape="521.35,501.75 519.99,501.56 519.02,500.98 518.44,500.01 518.25,498.65"/>
    </edge>
    <edge id=":0_6" function="internal">
        <lane id=":0_6_0" index="0" speed="15.28" length="22.70" shape="521.35,501.75 498.65,501.75"/>
        <lane id=":0_6_1" index="1" speed="15.28" length="22.70" shape="521.35,505.05 498.65,505.05"/>
        <lane id=":0_6_2" index="2" speed="15.28" length="22.70" shape="521.35,508.35 498.65,508.35"/>
    </edge>
    <edge id=":0_9" function="internal">
        <lane id=":0_9_0" index="0" speed="19.44" length="7.47" shape="521.35,508.35 515.66,509.16 514.18,510.05"/>
    </edge>
    <edge id=":0_10" function="internal">
        <lane id=":0_10_0" index="0" speed="19.44" length="2.41" shape="521.35,508.35 520.11,509.18 519.70,510.00"/>
    </edge>
    <edge id=":0_22" function="internal">
        <lane id=":0_22_0" index="0" speed="19.44" length="13.50" shape="514.18,510.05 511.60,511.60 509.16,515.66 508.35,521.35"/>
    </edge>
    <edge id=":0_23" function="internal">
        <lane id=":0_23_0" index="0" speed="19.44" length="2.41" shape="519.70,510.00 520.11,510.82 521.35,511.65"/>
    </edge>
    <edge id=":0_11" function="internal">
        <lane id=":0_11_0" index="0" speed="19.44" length="5.00" shape="518.25,521.35 518.44,519.99 519.02,519.02 519.99,518.44 521.35,518.25"/>
    </edge>
    <edge id=":0_12" function="internal">
        <lane id=":0_12_0" index="0" speed="15.28" length="22.70" shape="518.25,521.35 518.25,498.65"/>
        <lane id=":0_12_1" index="1" speed="15.28" length="22.70" shape="514.95,521.35 514.95,498.65"/>
        <lane id=":0_12_2" index="2" speed="15.28" length="22.70" shape="511.65,521.35 511.65,498.65"/>
    </edge>
    <edge id=":0_15" function="internal">
        <lane id=":0_15_0" index="0" speed="15.28" length="7.47" shape="511.65,521.35 510.84,515.66 509.95,514.18"/>
    </edge>
    <edge id=":0_24" function="internal">
        <lane id=":0_24_0" index="0" speed="15.28" length="13.50" shape="509.95,514.18 508.40,511.60 504.34,509.16 498.65,508.35"/>
    </edge>
    <edge id=":0_16" function="internal">
        <lane id=":0_16_0" index="0" speed="19.44" length="5.00" shape="498.65,518.25 500.01,518.44 500.98,519.02 501.56,519.99 501.75,521.35"/>
    </edge>
    <edge id=":0_17" function="internal">
        <lane id=":0_17_0" index="0" speed="19.44" length="22.70" shape="498.65,518.25 521.35,518.25"/>
        <lane id=":0_17_1" index="1" speed="19.44" length="22.70" shape="498.65,514.95 521.35,514.95"/>
        <lane id=":0_17_2" index="2" speed="19.44" length="22.70" shape="498.65,511.65 521.35,511.65"/>
    </edge>
    <edge id=":0_20" function="internal">
        <lane id=":0_20_0" index="0" speed="15.28" length="7.47" shape="498.65,511.65 504.34,510.84 505.82,509.95"/>
    </edge>
    <edge id=":0_25" function="internal">
        <lane id=":0_25_0" index="0" speed="15.28" length="13.50" shape="505.82,509.95 508.40,508.40 510.84,504.34 511.65,498.65"/>
    </edge>
    <edge id=":01_0" function="internal">
        <lane id=":01_0_0" index="0" speed="15.28" length="5.00" shape="501.75,598.65 501.56,600.01 500.98,600.98 500.01,601.56 498.65,601.75"/>
    </edge>
    <edge id=":01_1" function="internal">
        <lane id=":01_1_0" index="0" speed="15.28" length="22.70" shape="501.75,598.65 501.75,621.35"/>
        <lane id=":01_1_1" index="1" speed="15.28" length="22.70" shape="505.05,598.65 505.05,621.35"/>
        <lane id=":01_1_2" index="2" speed="15.28" length="22.70" shape="508.35,598.65 508.35,621.35"/>
    </edge>
    <edge id=":01_4" function="internal">
        <lane id=":01_4_0" index="0" speed="19.44" length="7.47" shape="508.35,598.65 509.16,604.34 510.05,605.82"/>
    </edge>
    <edge id=":01_5" function="internal">
        <lane id=":01_5_0" index="0" speed="19.44" length="2.41" shape="508.35,598.65 509.18,599.89 510.00,600.30"/>
    </edge>
    <edge id=":01_23" function="internal">
        <lane id=":01_23_0" index="0" speed="19.44" length="13.50" shape="510.05,605.82 511.60,608.40 515.66,610.84 521.35,611.65"/>
    </edge>
    <edge id=":01_24" function="internal">
        <lane id=":01_24_0" index="0" speed="19.44" length="2.41" shape="510.00,600.30 510.82,599.89 511.65,598.65"/>
    </edge>
    <edge id=":01_6" function="internal">
        <lane id=":01_6_0" index="0" speed="19.44" length="5.00" shape="521.35,601.75 519.99,601.56 519.02,600.98 518.44,600.01 518.25,598.65"/>
    </edge>
    <edge id=":01_7" function="internal">
        <lane id=":01_7_0" index="0" speed="15.28" length="22.70" shape="521.35,601.75 498.65,601.75"/>
        <lane id=":01_7_1" index="1" speed="15.28" length="22.70" shape="521.35,605.05 498.65,605.05"/>
        <lane id=":01_7_2" index="2" speed="15.28" length="22.70" shape="521.35,608.35 498.65,608.35"/>
    </edge>
    <edge id=":01_10" function="internal">
        <lane id=":01_10_0" index="0" speed="15.28" length="7.47" shape="521.35,608.35 515.66,609.16 514.18,610.05"/>
    </edge>
    <edge id=":01_11" function="internal">
        <lane id=":01_11_0" index="0" speed="19.44" length="2.41" shape="521.35,608.35 520.11,609.18 519.70,610.00"/>
    </edge>
    <edge id=":01_25" function="internal">
        <lane id=":01_25_0" index="0" speed="15.28" length="13.50" shape="514.18,610.05 511.60,611.60 509.16,615.66 508.35,621.35"/>
    </edge>
    <edge id=":01_26" function="internal">
        <lane id=":01_26_0" index="0" speed="19.44" length="2.41" shape="519.70,610.00 520.11,610.83 521.35,611.65"/>
    </edge>
    <edge id=":01_12" function="internal">
        <lane id=":01_12_0" index="0" speed="19.44" length="5.00" shape="518.25,621.35 518.44,619.99 519.02,619.02 519.99,618.44 521.35,618.25"/>
    </edge>
    <edge id=":01_13" function="internal">
        <lane id=":01_13_0" index="0" speed="19.44" length="22.70" shape="518.25,621.35 518.25,598.65"/>
        <lane id=":01_13_1" index="1" speed="19.44" length="22.70" shape="514.95,621.35 514.95,598.65"/>
        <lane id=":01_13_2" index="2" speed="19.44" length="22.70" shape="511.65,621.35 511.65,598.65"/>
    </edge>
    <edge id=":01_16" function="internal">
        <lane id=":01_16_0" index="0" speed="15.28" length="7.47" shape="511.65,621.35 510.84,615.66 509.95,614.18"/>
    </edge>
    <edge id=":01_27" function="internal">
        <lane id=":01_27_0" index="0" speed="15.28" length="13.50" shape="509.95,614.18 508.40,611.60 504.34,609.16 498.65,608.35"/>
    </edge>
    <edge id=":01_17" function="internal">
        <lane id=":01_17_0" index="0" speed="15.28" length="5.00" shape="498.65,618.25 500.01,618.44 500.98,619.02 501.56,619.99 501.75,621.35"/>
    </edge>
    <edge id=":01_18" function="internal">
        <lane id=":01_18_0" index="0" speed="19.44" length="22.70" shape="498.65,618.25 521.35,618.25"/>
        <lane id=":01_18_1" index="1" speed="19.44" length="22.70" shape="498.65,614.95 521.35,614.95"/>
        <lane id=":01_18_2" index="2" speed="19.44" length="22.70" shape="498.65,611.65 521.35,611.65"/>
    </edge>
    <edge id=":01_21" function="internal">
        <lane id=":01_21_0" index="0" speed="19.44" length="7.47" shape="498.65,611.65 504.34,610.84 505.82,609.95"/>
    </edge>
    <edge id=":01_22" function="internal">
        <lane id=":01_22_0" index="0" speed="15.28" length="2.41" shape="498.65,611.65 499.89,610.82 500.30,610.00"/>
    </edge>
    <edge id=":01_28" function="internal">
        <lane id=":01_28_0" index="0" speed="19.44" length="13.50" shape="505.82,609.95 508.40,608.40 510.84,604.34 511.65,598.65"/>
    </edge>
    <edge id=":01_29" function="internal">
        <lane id=":01_29_0" index="0" speed="15.28" length="2.41" shape="500.30,610.00 499.89,609.17 498.65,608.35"/>
    </edge>
    <edge id=":1_0" function="internal">
        <lane id=":1_0_0" index="0" speed="15.28" length="0.10" shape="10.00,501.75 10.00,501.75"/>
        <lane id=":1_0_1" index="1" speed="15.28" length="0.10" shape="10.00,505.05 10.00,505.05"/>
        <lane id=":1_0_2" index="2" speed="15.28" length="0.10" shape="10.00,508.35 10.00,508.35"/>
    </edge>
    <edge id=":1_3" function="internal">
        <lane id=":1_3_0" index="0" speed="15.28" length="2.41" shape="10.00,508.35 8.76,509.18 8.35,510.00"/>
    </edge>
    <edge id=":1_8" function="internal">
        <lane id=":1_8_0" index="0" speed="15.28" length="2.41" shape="8.35,510.00 8.76,510.82 10.00,511.65"/>
    </edge>
    <edge id=":1_4" function="internal">
        <lane id=":1_4_0" index="0" speed="15.28" length="0.10" shape="10.00,518.25 10.00,518.25"/>
        <lane id=":1_4_1" index="1" speed="15.28" length="0.10" shape="10.00,514.95 10.00,514.95"/>
        <lane id=":1_4_2" index="2" speed="15.28" length="0.10" shape="10.00,511.65 10.00,511.65"/>
    </edge>
    <edge id=":1_7" function="internal">
        <lane id=":1_7_0" index="0" speed="15.28" length="2.41" shape="10.00,511.65 11.24,510.82 11.65,510.00"/>
    </edge>
    <edge id=":1_9" function="internal">
        <lane id=":1_9_0" index="0" speed="15.28" length="2.41" shape="11.65,510.00 11.24,509.18 10.00,508.35"/>
    </edge>
    <edge id=":10_0" function="internal">
        <lane id=":10_0_0" index="0" speed="19.44" length="5.00" shape="601.75,498.65 601.56,500.01 600.98,500.98 600.01,501.56 598.65,501.75"/>
    </edge>
    <edge id=":10_1" function="internal">
        <lane id=":10_1_0" index="0" speed="19.44" length="22.70" shape="601.75,498.65 601.75,521.35"/>
        <lane id=":10_1_1" index="1" speed="19.44" length="22.70" shape="605.05,498.65 605.05,521.35"/>
        <lane id=":10_1_2" index="2" speed="19.44" length="22.70" shape="608.35,498.65 608.35,521.35"/>
    </edge>
    <edge id=":10_4" function="internal">
        <lane id=":10_4_0" index="0" speed="15.28" length="7.47" shape="608.35,498.65 609.16,504.34 610.05,505.82"/>
    </edge>
    <edge id=":10_21" function="internal">
        <lane id=":10_21_0" index="0" speed="15.28" length="13.50" shape="610.05,505.82 611.60,508.40 615.66,510.84 621.35,511.65"/>
    </edge>
    <edge id=":10_5" function="internal">
        <lane id=":10_5_0" index="0" speed="15.28" length="5.00" shape="621.35,501.75 619.99,501.56 619.02,500.98 618.44,500.01 618.25,498.65"/>
    </edge>
    <edge id=":10_6" function="internal">
        <lane id=":10_6_0" index="0" speed="19.44" length="22.70" shape="621.35,501.75 598.65,501.75"/>
        <lane id=":10_6_1" index="1" speed="19.44" length="22.70" shape="621.35,505.05 598.65,505.05"/>
        <lane id=":10_6_2" index="2" speed="19.44" length="22.70" shape="621.35,508.35 598.65,508.35"/>
    </edge>
    <edge id=":10_9" function="internal">
        <lane id=":10_9_0" index="0" speed="19.44" length="7.47" shape="621.35,508.35 615.66,509.16 614.18,510.05"/>
    </edge>
    <edge id=":10_22" function="internal">
        <lane id=":10_22_0" index="0" speed="19.44" length="13.50" shape="614.18,510.05 611.60,511.60 609.16,515.66 608.35,521.35"/>
    </edge>
    <edge id=":10_10" function="internal">
        <lane id=":10_10_0" index="0" speed="15.28" length="5.00" shape="618.25,521.35 618.44,519.99 619.02,519.02 619.99,518.44 621.35,518.25"/>
    </edge>
    <edge id=":10_11" function="internal">
        <lane id=":10_11_0" index="0" speed="15.28" length="22.70" shape="618.25,521.35 618.25,498.65"/>
        <lane id=":10_11_1" index="1" speed="15.28" length="22.70" shape="614.95,521.35 614.95,498.65"/>
        <lane id=":10_11_2" index="2" speed="15.28" length="22.70" shape="611.65,521.35 611.65,498.65"/>
    </edge>
    <edge id=":10_14" function="internal">
        <lane id=":10_14_0" index="0" speed="19.44" length="7.47" shape="611.65,521.35 610.84,515.66 609.95,514.18"/>
    </edge>
    <edge id=":10_23" function="internal">
        <lane id=":10_23_0" index="0" speed="19.44" length="13.50" shape="609.95,514.18 608.40,511.60 604.34,509.16 598.65,508.35"/>
    </edge>
    <edge id=":10_15" function="internal">
        <lane id=":10_15_0" index="0" speed="19.44" length="5.00" shape="598.65,518.25 600.01,518.44 600.98,519.02 601.56,519.99 601.75,521.35"/>
    </edge>
    <edge id=":10_16" function="internal">
        <lane id=":10_16_0" index="0" speed="15.28" length="22.70" shape="598.65,518.25 621.35,518.25"/>
        <lane id=":10_16_1" index="1" speed="15.28" length="22.70" shape="598.65,514.95 621.35,514.95"/>
        <lane id=":10_16_2" index="2" speed="15.28" length="22.70" shape="598.65,511.65 621.35,511.65"/>
    </edge>
    <edge id=":10_19" function="internal">
        <lane id=":10_19_0" index="0" speed="15.28" length="7.47" shape="598.65,511.65 604.34,510.84 605.82,509.95"/>
    </edge>
    <edge id=":10_20" function="internal">
        <lane id=":10_20_0" index="0" speed="19.44" length="2.41" shape="598.65,511.65 599.89,510.82 600.30,510.00"/>
    </edge>
    <edge id=":10_24" function="internal">
        <lane id=":10_24_0" index="0" speed="15.28" length="13.50" shape="605.82,509.95 608.40,508.40 610.84,504.34 611.65,498.65"/>
    </edge>
    <edge id=":10_25" function="internal">
        <lane id=":10_25_0" index="0" speed="19.44" length="2.41" shape="600.30,510.00 599.89,509.18 598.65,508.35"/>
    </edge>
    <edge id=":101_0" function="internal">
        <lane id=":101_0_0" index="0" speed="15.28" length="0.10" shape="10.00,601.75 10.00,601.75"/>
        <lane id=":101_0_1" index="1" speed="15.28" length="0.10" shape="10.00,605.05 10.00,605.05"/>
        <lane id=":101_0_2" index="2" speed="15.28" length="0.10" shape="10.00,608.35 10.00,608.35"/>
    </edge>
    <edge id=":101_3" function="internal">
        <lane id=":101_3_0" index="0" speed="15.28" length="2.41" shape="10.00,608.35 8.76,609.18 8.35,610.00"/>
    </edge>
    <edge id=":101_8" function="internal">
        <lane id=":101_8_0" index="0" speed="15.28" length="2.41" shape="8.35,610.00 8.76,610.83 10.00,611.65"/>
    </edge>
    <edge id=":101_4" function="internal">
        <lane id=":101_4_0" index="0" speed="15.28" length="0.10" shape="10.00,618.25 10.00,618.25"/>
        <lane id=":101_4_1" index="1" speed="15.28" length="0.10" shape="10.00,614.95 10.00,614.95"/>
        <lane id=":101_4_2" index="2" speed="15.28" length="0.10" shape="10.00,611.65 10.00,611.65"/>
    </edge>
    <edge id=":101_7" function="internal">
        <lane id=":101_7_0" index="0" speed="15.28" length="2.41" shape="10.00,611.65 11.24,610.82 11.65,610.00"/>
    </edge>
    <edge id=":101_9" function="internal">
        <lane id=":101_9_0" index="0" speed="15.28" length="2.41" shape="11.65,610.00 11.24,609.17 10.00,608.35"/>
    </edge>
    <edge id=":102_0" function="internal">
        <lane id=":102_0_0" index="0" speed="15.28" length="0.10" shape="1110.00,601.75 1110.00,601.75"/>
        <lane id=":102_0_1" index="1" speed="15.28" length="0.10" shape="1110.00,605.05 1110.00,605.05"/>
        <lane id=":102_0_2" index="2" speed="15.28" length="0.10" shape="1110.00,608.35 1110.00,608.35"/>
    </edge>
    <edge id=":102_3" function="internal">
        <lane id=":102_3_0" index="0" speed="15.28" length="2.41" shape="1110.00,608.35 1108.76,609.18 1108.35,610.00"/>
    </edge>
    <edge id=":102_8" function="internal">
        <lane id=":102_8_0" index="0" speed="15.28" length="2.41" shape="1108.35,610.00 1108.76,610.83 1110.00,611.65"/>
    </edge>
    <edge id=":102_4" function="internal">
        <lane id=":102_4_0" index="0" speed="15.28" length="0.10" shape="1110.00,618.25 1110.00,618.25"/>
        <lane id=":102_4_1" index="1" speed="15.28" length="0.10" shape="1110.00,614.95 1110.00,614.95"/>
        <lane id=":102_4_2" index="2" speed="15.28" length="0.10" shape="1110.00,611.65 1110.00,611.65"/>
    </edge>
    <edge id=":102_7" function="internal">
        <lane id=":102_7_0" index="0" speed="15.28" length="2.41" shape="1110.00,611.65 1111.24,610.82 1111.65,610.00"/>
    </edge>
    <edge id=":102_9" function="internal">
        <lane id=":102_9_0" index="0" speed="15.28" length="2.41" shape="1111.65,610.00 1111.24,609.17 1110.00,608.35"/>
    </edge>
    <edge id=":1051_0" function="internal">
        <lane id=":1051_0_0" index="0" speed="15.28" length="4.82" shape="0.00,608.35 -1.24,609.18 -1.65,610.00 -1.24,610.83 0.00,611.65"/>
    </edge>
    <edge id=":1052_0" function="internal">
        <lane id=":1052_0_0" index="0" speed="15.28" length="4.82" shape="1120.00,611.65 1121.24,610.82 1121.65,610.00 1121.24,609.17 1120.00,608.35"/>
    </edge>
    <edge id=":11_0" function="internal">
        <lane id=":11_0_0" index="0" speed="19.44" length="5.00" shape="601.75,598.65 601.56,600.01 600.98,600.98 600.01,601.56 598.65,601.75"/>
    </edge>
    <edge id=":11_1" function="internal">
        <lane id=":11_1_0" index="0" speed="15.28" length="22.70" shape="601.75,598.65 601.75,621.35"/>
        <lane id=":11_1_1" index="1" speed="15.28" length="22.70" shape="605.05,598.65 605.05,621.35"/>
        <lane id=":11_1_2" index="2" speed="15.28" length="22.70" shape="608.35,598.65 608.35,621.35"/>
    </edge>
    <edge id=":11_4" function="internal">
        <lane id=":11_4_0" index="0" speed="15.28" length="7.47" shape="608.35,598.65 609.16,604.34 610.05,605.82"/>
    </edge>
    <edge id=":11_5" function="internal">
        <lane id=":11_5_0" index="0" speed="19.44" length="2.41" shape="608.35,598.65 609.18,599.89 610.00,600.30"/>
    </edge>
    <edge id=":11_23" function="internal">
        <lane id=":11_23_0" index="0" speed="15.28" length="13.50" shape="610.05,605.82 611.60,608.40 615.66,610.84 621.35,611.65"/>
    </edge>
    <edge id=":11_24" function="internal">
        <lane id=":11_24_0" index="0" speed="19.44" length="2.41" shape="610.00,600.30 610.83,599.89 611.65,598.65"/>
    </edge>
    <edge id=":11_6" function="internal">
        <lane id=":11_6_0" index="0" speed="19.44" length="5.00" shape="621.35,601.75 619.99,601.56 619.02,600.98 618.44,600.01 618.25,598.65"/>
    </edge>
    <edge id=":11_7" function="internal">
        <lane id=":11_7_0" index="0" speed="19.44" length="22.70" shape="621.35,601.75 598.65,601.75"/>
        <lane id=":11_7_1" index="1" speed="19.44" length="22.70" shape="621.35,605.05 598.65,605.05"/>
        <lane id=":11_7_2" index="2" speed="19.44" length="22.70" shape="621.35,608.35 598.65,608.35"/>
    </edge>
    <edge id=":11_10" function="internal">
        <lane id=":11_10_0" index="0" speed="15.28" length="7.47" shape="621.35,608.35 615.66,609.16 614.18,610.05"/>
    </edge>
    <edge id=":11_11" function="internal">
        <lane id=":11_11_0" index="0" speed="15.28" length="2.41" shape="621.35,608.35 620.11,609.18 619.70,610.00"/>
    </edge>
    <edge id=":11_25" function="internal">
        <lane id=":11_25_0" index="0" speed="15.28" length="13.50" shape="614.18,610.05 611.60,611.60 609.16,615.66 608.35,621.35"/>
    </edge>
    <edge id=":11_26" function="internal">
        <lane id=":11_26_0" index="0" speed="15.28" length="2.41" shape="619.70,610.00 620.11,610.83 621.35,611.65"/>
    </edge>
    <edge id=":11_12" function="internal">
        <lane id=":11_12_0" index="0" speed="15.28" length="5.00" shape="618.25,621.35 618.44,619.99 619.02,619.02 619.99,618.44 621.35,618.25"/>
    </edge>
    <edge id=":11_13" function="internal">
        <lane id=":11_13_0" index="0" speed="19.44" length="22.70" shape="618.25,621.35 618.25,598.65"/>
        <lane id=":11_13_1" index="1" speed="19.44" length="22.70" shape="614.95,621.35 614.95,598.65"/>
        <lane id=":11_13_2" index="2" speed="19.44" length="22.70" shape="611.65,621.35 611.65,598.65"/>
    </edge>
    <edge id=":11_16" function="internal">
        <lane id=":11_16_0" index="0" speed="19.44" length="7.47" shape="611.65,621.35 610.84,615.66 609.95,614.18"/>
    </edge>
    <edge id=":11_27" function="internal">
        <lane id=":11_27_0" index="0" speed="19.44" length="13.50" shape="609.95,614.18 608.40,611.60 604.34,609.16 598.65,608.35"/>
    </edge>
    <edge id=":11_17" function="internal">
        <lane id=":11_17_0" index="0" speed="15.28" length="5.00" shape="598.65,618.25 600.01,618.44 600.98,619.02 601.56,619.99 601.75,621.35"/>
    </edge>
    <edge id=":11_18" function="internal">
        <lane id=":11_18_0" index="0" speed="15.28" length="22.70" shape="598.65,618.25 621.35,618.25"/>
        <lane id=":11_18_1" index="1" speed="15.28" length="22.70" shape="598.65,614.95 621.35,614.95"/>
        <lane id=":11_18_2" index="2" speed="15.28" length="22.70" shape="598.65,611.65 621.35,611.65"/>
    </edge>
    <edge id=":11_21" function="internal">
        <lane id=":11_21_0" index="0" speed="19.44" length="7.47" shape="598.65,611.65 604.34,610.84 605.82,609.95"/>
    </edge>
    <edge id=":11_22" function="internal">
        <lane id=":11_22_0" index="0" speed="19.44" length="2.41" shape="598.65,611.65 599.89,610.82 600.30,610.00"/>
    </edge>
    <edge id=":11_28" function="internal">
        <lane id=":11_28_0" index="0" speed="19.44" length="13.50" shape="605.82,609.95 608.40,608.40 610.84,604.34 611.65,598.65"/>
    </edge>
    <edge id=":11_29" function="internal">
        <lane id=":11_29_0" index="0" speed="19.44" length="2.41" shape="600.30,610.00 599.89,609.17 598.65,608.35"/>
    </edge>
    <edge id=":13_0" function="internal">
        <lane id=":13_0_0" index="0" speed="15.28" length="0.10" shape="601.75,10.00 601.75,10.00"/>
        <lane id=":13_0_1" index="1" speed="15.28" length="0.10" shape="605.05,10.00 605.05,10.00"/>
        <lane id=":13_0_2" index="2" speed="15.28" length="0.10" shape="608.35,10.00 608.35,10.00"/>
    </edge>
    <edge id=":13_3" function="internal">
        <lane id=":13_3_0" index="0" speed="15.28" length="2.41" shape="608.35,10.00 609.18,11.24 610.00,11.65"/>
    </edge>
    <edge id=":13_8" function="internal">
        <lane id=":13_8_0" index="0" speed="15.28" length="2.41" shape="610.00,11.65 610.83,11.24 611.65,10.00"/>
    </edge>
    <edge id=":13_4" function="internal">
        <lane id=":13_4_0" index="0" speed="15.28" length="0.10" shape="618.25,10.00 618.25,10.00"/>
        <lane id=":13_4_1" index="1" speed="15.28" length="0.10" shape="614.95,10.00 614.95,10.00"/>
        <lane id=":13_4_2" index="2" speed="15.28" length="0.10" shape="611.65,10.00 611.65,10.00"/>
    </edge>
    <edge id=":13_7" function="internal">
        <lane id=":13_7_0" index="0" speed="15.28" length="2.41" shape="611.65,10.00 610.82,8.76 610.00,8.35"/>
    </edge>
    <edge id=":13_9" function="internal">
        <lane id=":13_9_0" index="0" speed="15.28" length="2.41" shape="610.00,8.35 609.17,8.76 608.35,10.00"/>
    </edge>
    <edge id=":14_0" function="internal">
        <lane id=":14_0_0" index="0" speed="15.28" length="0.10" shape="601.75,1110.00 601.75,1110.00"/>
        <lane id=":14_0_1" index="1" speed="15.28" length="0.10" shape="605.05,1110.00 605.05,1110.00"/>
        <lane id=":14_0_2" index="2" speed="15.28" length="0.10" shape="608.35,1110.00 608.35,1110.00"/>
    </edge>
    <edge id=":14_3" function="internal">
        <lane id=":14_3_0" index="0" speed="15.28" length="2.41" shape="608.35,1110.00 609.18,1111.24 610.00,1111.65"/>
    </edge>
    <edge id=":14_8" function="internal">
        <lane id=":14_8_0" index="0" speed="15.28" length="2.41" shape="610.00,1111.65 610.83,1111.24 611.65,1110.00"/>
    </edge>
    <edge id=":14_4" function="internal">
        <lane id=":14_4_0" index="0" speed="15.28" length="0.10" shape="618.25,1110.00 618.25,1110.00"/>
        <lane id=":14_4_1" index="1" speed="15.28" length="0.10" shape="614.95,1110.00 614.95,1110.00"/>
        <lane id=":14_4_2" index="2" speed="15.28" length="0.10" shape="611.65,1110.00 611.65,1110.00"/>
    </edge>
    <edge id=":14_7" function="internal">
        <lane id=":14_7_0" index="0" speed="15.28" length="2.41" shape="611.65,1110.00 610.82,1108.76 610.00,1108.35"/>
    </edge>
    <edge id=":14_9" function="internal">
        <lane id=":14_9_0" index="0" speed="15.28" length="2.41" shape="610.00,1108.35 609.17,1108.76 608.35,1110.00"/>
    </edge>
    <edge id=":153_0" function="internal">
        <lane id=":153_0_0" index="0" speed="15.28" length="4.82" shape="611.65,-0.00 610.82,-1.24 610.00,-1.65 609.17,-1.24 608.35,-0.00"/>
    </edge>
    <edge id=":154_0" function="internal">
        <lane id=":154_0_0" index="0" speed="15.28" length="4.82" shape="608.35,1120.00 609.18,1121.24 610.00,1121.65 610.83,1121.24 611.65,1120.00"/>
    </edge>
    <edge id=":2_0" function="internal">
        <lane id=":2_0_0" index="0" speed="15.28" length="0.10" shape="1110.00,501.75 1110.00,501.75"/>
        <lane id=":2_0_1" index="1" speed="15.28" length="0.10" shape="1110.00,505.05 1110.00,505.05"/>
        <lane id=":2_0_2" index="2" speed="15.28" length="0.10" shape="1110.00,508.35 1110.00,508.35"/>
    </edge>
    <edge id=":2_3" function="internal">
        <lane id=":2_3_0" index="0" speed="15.28" length="2.41" shape="1110.00,508.35 1108.76,509.18 1108.35,510.00"/>
    </edge>
    <edge id=":2_8" function="internal">
        <lane id=":2_8_0" index="0" speed="15.28" length="2.41" shape="1108.35,510.00 1108.76,510.82 1110.00,511.65"/>
    </edge>
    <edge id=":2_4" function="internal">
        <lane id=":2_4_0" index="0" speed="15.28" length="0.10" shape="1110.00,518.25 1110.00,518.25"/>
        <lane id=":2_4_1" index="1" speed="15.28" length="0.10" shape="1110.00,514.95 1110.00,514.95"/>
        <lane id=":2_4_2" index="2" speed="15.28" length="0.10" shape="1110.00,511.65 1110.00,511.65"/>
    </edge>
    <edge id=":2_7" function="internal">
        <lane id=":2_7_0" index="0" speed="15.28" length="2.41" shape="1110.00,511.65 1111.24,510.82 1111.65,510.00"/>
    </edge>
    <edge id=":2_9" function="internal">
        <lane id=":2_9_0" index="0" speed="15.28" length="2.41" shape="1111.65,510.00 1111.24,509.18 1110.00,508.35"/>
    </edge>
    <edge id=":3_0" function="internal">
        <lane id=":3_0_0" index="0" speed="15.28" length="0.10" shape="501.75,10.00 501.75,10.00"/>
        <lane id=":3_0_1" index="1" speed="15.28" length="0.10" shape="505.05,10.00 505.05,10.00"/>
        <lane id=":3_0_2" index="2" speed="15.28" length="0.10" shape="508.35,10.00 508.35,10.00"/>
    </edge>
    <edge id=":3_3" function="internal">
        <lane id=":3_3_0" index="0" speed="15.28" length="2.41" shape="508.35,10.00 509.18,11.24 510.00,11.65"/>
    </edge>
    <edge id=":3_8" function="internal">
        <lane id=":3_8_0" index="0" speed="15.28" length="2.41" shape="510.00,11.65 510.82,11.24 511.65,10.00"/>
    </edge>
    <edge id=":3_4" function="internal">
        <lane id=":3_4_0" index="0" speed="15.28" length="0.10" shape="518.25,10.00 518.25,10.00"/>
        <lane id=":3_4_1" index="1" speed="15.28" length="0.10" shape="514.95,10.00 514.95,10.00"/>
        <lane id=":3_4_2" index="2" speed="15.28" length="0.10" shape="511.65,10.00 511.65,10.00"/>
    </edge>
    <edge id=":3_7" function="internal">
        <lane id=":3_7_0" index="0" speed="15.28" length="2.41" shape="511.65,10.00 510.82,8.76 510.00,8.35"/>
    </edge>
    <edge id=":3_9" function="internal">
        <lane id=":3_9_0" index="0" speed="15.28" length="2.41" shape="510.00,8.35 509.18,8.76 508.35,10.00"/>
    </edge>
    <edge id=":4_0" function="internal">
        <lane id=":4_0_0" index="0" speed="15.28" length="0.10" shape="501.75,1110.00 501.75,1110.00"/>
        <lane id=":4_0_1" index="1" speed="15.28" length="0.10" shape="505.05,1110.00 505.05,1110.00"/>
        <lane id=":4_0_2" index="2" speed="15.28" length="0.10" shape="508.35,1110.00 508.35,1110.00"/>
    </edge>
    <edge id=":4_3" function="internal">
        <lane id=":4_3_0" index="0" speed="15.28" length="2.41" shape="508.35,1110.00 509.18,1111.24 510.00,1111.65"/>
    </edge>
    <edge id=":4_8" function="internal">
        <lane id=":4_8_0" index="0" speed="15.28" length="2.41" shape="510.00,1111.65 510.82,1111.24 511.65,1110.00"/>
    </edge>
    <edge id=":4_4" function="internal">