<?xml version="1.0" encoding="UTF-8"?>

<!-- generated on Fri Oct  5 21:32:38 2018 by SUMO netconvert Version 0.32.0
<?xml version="1.0" encoding="UTF-8"?>

<configuration xmlns:xsi="http://www.w3.org/2001/XMLSchema-instance" xsi:noNamespaceSchemaLocation="http://sumo.dlr.de/xsd/netconvertConfiguration.xsd">

    <input>
        <node-files value="cross_2intersections.nod.xml"/>
        <edge-files value="cross_2intersections.edg.xml"/>
        <connection-files value="cross_2intersections.con.xml"/>
    </input>

    <output>
        <output-file value="cross_2intersections.net.xml"/>
    </output>

    <processing>
        <lefthand value="true"/>
    </processing>

</configuration>
-->

<net version="0.27" lefthand="true" xmlns:xsi="http://www.w3.org/2001/XMLSchema-instance" xsi:noNamespaceSchemaLocation="http://sumo.dlr.de/xsd/net_file.xsd">

    <location netOffset="510.00,510.00" convBoundary="0.00,-0.00,1120.00,1020.00" origBoundary="-510.00,-510.00,610.00,510.00" projParameter="!"/>

    <edge id=":0_0" function="internal">
        <lane id=":0_0_0" index="0" speed="15.28" length="5.00" shape="501.75,498.65 501.56,500.01 500.98,500.98 500.01,501.56 498.65,501.75"/>
    </edge>
    <edge id=":0_1" function="internal">
        <lane id=":0_1_0" index="0" speed="15.28" length="22.70" shape="501.75,498.65 501.75,521.35"/>
        <lane id=":0_1_1" index="1" speed="15.28" length="22.70" shape="505.05,498.65 505.05,521.35"/>
        <lane id=":0_1_2" index="2" speed="15.28" length="22.70" shape="508.35,498.65 508.35,521.35"/>
    </edge>
    <edge id=":0_4" function="internal">
        <lane id=":0_4_0" index="0" speed="19.44" length="7.47" shape="508.35,498.65 509.16,504.34 510.05,505.82"/>
    </edge>
    <edge id=":0_21" function="internal">
        <lane id=":0_21_0" index="0" speed="19.44" length="13.50" shape="510.05,505.82 511.60,508.40 515.66,510.84 521.35,511.65"/>
    </edge>
    <edge id=":0_5" function="internal">
        <lane id=":0_5_0" index="0" speed="15.28" length="5.00" shape="521.35,501.75 519.99,501.56 519.02,500.98 518.44,500.01 518.25,498.65"/>
    </edge>
    <edge id=":0_6" function="internal">
        <lane id=":0_6_0" index="0" speed="15.28" length="22.70" shape="521.35,501.75 498.65,501.75"/>
        <lane id=":0_6_1" index="1" speed="15.28" length="22.70" shape="521.35,505.05 498.65,505.05"/>
        <lane id=":0_6_2" index="2" speed="15.28" length="22.70" shape="521.35,508.35 498.65,508.35"/>
    </edge>
    <edge id=":0_9" function="internal">
        <lane id=":0_9_0" index="0" speed="15.28" length="7.47" shape="521.35,508.35 515.66,509.16 514.18,510.05"/>
    </edge>
    <edge id=":0_10" function="internal">
        <lane id=":0_10_0" index="0" speed="19.44" length="2.41" shape="521.35,508.35 520.11,509.18 519.70,510.00"/>
    </edge>
    <edge id=":0_22" function="internal">
        <lane id=":0_22_0" index="0" speed="15.28" length="13.50" shape="514.18,510.05 511.60,511.60 509.16,515.66 508.35,521.35"/>
    </edge>
    <edge id=":0_23" function="internal">
        <lane id=":0_23_0" index="0" speed="19.44" length="2.41" shape="519.70,510.00 520.11,510.82 521.35,511.65"/>
    </edge>
    <edge id=":0_11" function="internal">
        <lane id=":0_11_0" index="0" speed="19.44" length="5.00" shape="518.25,521.35 518.44,519.99 519.02,519.02 519.99,518.44 521.35,518.25"/>
    </edge>
    <edge id=":0_12" function="internal">
        <lane id=":0_12_0" index="0" speed="15.28" length="22.70" shape="518.25,521.35 518.25,498.65"/>
        <lane id=":0_12_1" index="1" speed="15.28" length="22.70" shape="514.95,521.35 514.95,498.65"/>
        <lane id=":0_12_2" index="2" speed="15.28" length="22.70" shape="511.65,521.35 511.65,498.65"/>
    </edge>
    <edge id=":0_15" function="internal">
        <lane id=":0_15_0" index="0" speed="15.28" length="7.47" shape="511.65,521.35 510.84,515.66 509.95,514.18"/>
    </edge>
    <edge id=":0_24" function="internal">
        <lane id=":0_24_0" index="0" speed="15.28" length="13.50" shape="509.95,514.18 508.40,511.60 504.34,509.16 498.65,508.35"/>
    </edge>
    <edge id=":0_16" function="internal">
        <lane id=":0_16_0" index="0" speed="15.28" length="5.00" shape="498.65,518.25 500.01,518.44 500.98,519.02 501.56,519.99 501.75,521.35"/>
    </edge>
    <edge id=":0_17" function="internal">
        <lane id=":0_17_0" index="0" speed="19.44" length="22.70" shape="498.65,518.25 521.35,518.25"/>
        <lane id=":0_17_1" index="1" speed="19.44" length="22.70" shape="498.65,514.95 521.35,514.95"/>
        <lane id=":0_17_2" index="2" speed="19.44" length="22.70" shape="498.65,511.65 521.35,511.65"/>
    </edge>
    <edge id=":0_20" function="internal">
        <lane id=":0_20_0" index="0" speed="15.28" length="7.47" shape="498.65,511.65 504.34,510.84 505.82,509.95"/>
    </edge>
    <edge id=":0_25" function="internal">
        <lane id=":0_25_0" index="0" speed="15.28" length="13.50" shape="505.82,509.95 508.40,508.40 510.84,504.34 511.65,498.65"/>
    </edge>
    <edge id=":1_0" function="internal">
        <lane id=":1_0_0" index="0" speed="15.28" length="0.10" shape="10.00,501.75 10.00,501.75"/>
        <lane id=":1_0_1" index="1" speed="15.28" length="0.10" shape="10.00,505.05 10.00,505.05"/>
        <lane id=":1_0_2" index="2" speed="15.28" length="0.10" shape="10.00,508.35 10.00,508.35"/>
    </edge>
    <edge id=":1_3" function="internal">
        <lane id=":1_3_0" index="0" speed="15.28" length="2.41" shape="10.00,508.35 8.76,509.18 8.35,510.00"/>
    </edge>
    <edge id=":1_8" function="internal">
        <lane id=":1_8_0" index="0" speed="15.28" length="2.41" shape="8.35,510.00 8.76,510.82 10.00,511.65"/>
    </edge>
    <edge id=":1_4" function="internal">
        <lane id=":1_4_0" index="0" speed="15.28" length="0.10" shape="10.00,518.25 10.00,518.25"/>
        <lane id=":1_4_1" index="1" speed="15.28" length="0.10" shape="10.00,514.95 10.00,514.95"/>
        <lane id=":1_4_2" index="2" speed="15.28" length="0.10" shape="10.00,511.65 10.00,511.65"/>
    </edge>
    <edge id=":1_7" function="internal">
        <lane id=":1_7_0" index="0" speed="15.28" length="2.41" shape="10.00,511.65 11.24,510.82 11.65,510.00"/>
    </edge>
    <edge id=":1_9" function="internal">
        <lane id=":1_9_0" index="0" speed="15.28" length="2.41" shape="11.65,510.00 11.24,509.18 10.00,508.35"/>
    </edge>
    <edge id=":10_0" function="internal">
        <lane id=":10_0_0" index="0" speed="19.44" length="5.00" shape="601.75,498.65 601.56,500.01 600.98,500.98 600.01,501.56 598.65,501.75"/>
    </edge>
    <edge id=":10_1" function="internal">
        <lane id=":10_1_0" index="0" speed="15.28" length="22.70" shape="601.75,498.65 601.75,521.35"/>
        <lane id=":10_1_1" index="1" speed="15.28" length="22.70" shape="605.05,498.65 605.05,521.35"/>
        <lane id=":10_1_2" index="2" speed="15.28" length="22.70" shape="608.35,498.65 608.35,521.35"/>
    </edge>
    <edge id=":10_4" function="internal">
        <lane id=":10_4_0" index="0" speed="15.28" length="7.47" shape="608.35,498.65 609.16,504.34 610.05,505.82"/>
    </edge>
    <edge id=":10_21" function="internal">
        <lane id=":10_21_0" index="0" speed="15.28" length="13.50" shape="610.05,505.82 611.60,508.40 615.66,510.84 621.35,511.65"/>
    </edge>
    <edge id=":10_5" function="internal">
        <lane id=":10_5_0" index="0" speed="15.28" length="5.00" shape="621.35,501.75 619.99,501.56 619.02,500.98 618.44,500.01 618.25,498.65"/>
    </edge>
    <edge id=":10_6" function="internal">
        <lane id=":10_6_0" index="0" speed="19.44" length="22.70" shape="621.35,501.75 598.65,501.75"/>
        <lane id=":10_6_1" index="1" speed="19.44" length="22.70" shape="621.35,505.05 598.65,505.05"/>
        <lane id=":10_6_2" index="2" speed="19.44" length="22.70" shape="621.35,508.35 598.65,508.35"/>
    </edge>
    <edge id=":10_9" function="internal">
        <lane id=":10_9_0" index="0" speed="15.28" length="7.47" shape="621.35,508.35 615.66,509.16 614.18,510.05"/>
    </edge>
    <edge id=":10_22" function="internal">
        <lane id=":10_22_0" index="0" speed="15.28" length="13.50" shape="614.18,510.05 611.60,511.60 609.16,515.66 608.35,521.35"/>
    </edge>
    <edge id=":10_10" function="internal">
        <lane id=":10_10_0" index="0" speed="15.28" length="5.00" shape="618.25,521.35 618.44,519.99 619.02,519.02 619.99,518.44 621.35,518.25"/>
    </edge>
    <edge id=":10_11" function="internal">
        <lane id=":10_11_0" index="0" speed="15.28" length="22.70" shape="618.25,521.35 618.25,498.65"/>
        <lane id=":10_11_1" index="1" speed="15.28" length="22.70" shape="614.95,521.35 614.95,498.65"/>
        <lane id=":10_11_2" index="2" speed="15.28" length="22.70" shape="611.65,521.35 611.65,498.65"/>
    </edge>
    <edge id=":10_14" function="internal">
        <lane id=":10_14_0" index="0" speed="19.44" length="7.47" shape="611.65,521.35 610.84,515.66 609.95,514.18"/>
    </edge>
    <edge id=":10_23" function="internal">
        <lane id=":10_23_0" index="0" speed="19.44" length="13.50" shape="609.95,514.18 608.40,511.60 604.34,509.16 598.65,508.35"/>
    </edge>
    <edge id=":10_15" function="internal">
        <lane id=":10_15_0" index="0" speed="15.28" length="5.00" shape="598.65,518.25 600.01,518.44 600.98,519.02 601.56,519.99 601.75,521.35"/>
    </edge>
    <edge id=":10_16" function="internal">
        <lane id=":10_16_0" index="0" speed="15.28" length="22.70" shape="598.65,518.25 621.35,518.25"/>
        <lane id=":10_16_1" index="1" speed="15.28" length="22.70" shape="598.65,514.95 621.35,514.95"/>
        <lane id=":10_16_2" index="2" speed="15.28" length="22.70" shape="598.65,511.65 621.35,511.65"/>
    </edge>
    <edge id=":10_19" function="internal">
        <lane id=":10_19_0" index="0" speed="15.28" length="7.47" shape="598.65,511.65 604.34,510.84 605.82,509.95"/>
    </edge>
    <edge id=":10_20" function="internal">
        <lane id=":10_20_0" index="0" speed="19.44" length="2.41" shape="598.65,511.65 599.89,510.82 600.30,510.00"/>
    </edge>
    <edge id=":10_24" function="internal">
        <lane id=":10_24_0" index="0" speed="15.28" length="13.50" shape="605.82,509.95 608.40,508.40 610.84,504.34 611.65,498.65"/>
    </edge>
    <edge id=":10_25" function="internal">
        <lane id=":10_25_0" index="0" speed="19.44" length="2.41" shape="600.30,510.00 599.89,509.18 598.65,508.35"/>
    </edge>
    <edge id=":13_0" function="internal">
        <lane id=":13_0_0" index="0" speed="15.28" length="0.10" shape="601.75,10.00 601.75,10.00"/>
        <lane id=":13_0_1" index="1" speed="15.28" length="0.10" shape="605.05,10.00 605.05,10.00"/>
        <lane id=":13_0_2" index="2" speed="15.28" length="0.10" shape="608.35,10.00 608.35,10.00"/>
    </edge>
    <edge id=":13_3" function="internal">
        <lane id=":13_3_0" index="0" speed="15.28" length="2.41" shape="608.35,10.00 609.18,11.24 610.00,11.65"/>
    </edge>
    <edge id=":13_8" function="internal">
        <lane id=":13_8_0" index="0" speed="15.28" length="2.41" shape="610.00,11.65 610.83,11.24 611.65,10.00"/>
    </edge>
    <edge id=":13_4" function="internal">
        <lane id=":13_4_0" index="0" speed="15.28" length="0.10" shape="618.25,10.00 618.25,10.00"/>
        <lane id=":13_4_1" index="1" speed="15.28" length="0.10" shape="614.95,10.00 614.95,10.00"/>
        <lane id=":13_4_2" index="2" speed="15.28" length="0.10" shape="611.65,10.00 611.65,10.00"/>
    </edge>
    <edge id=":13_7" function="internal">
        <lane id=":13_7_0" index="0" speed="15.28" length="2.41" shape="611.65,10.00 610.82,8.76 610.00,8.35"/>
    </edge>
    <edge id=":13_9" function="internal">
        <lane id=":13_9_0" index="0" speed="15.28" length="2.41" shape="610.00,8.35 609.17,8.76 608.35,10.00"/>
    </edge>
    <edge id=":14_0" function="internal">
        <lane id=":14_0_0" index="0" speed="15.28" length="0.10" shape="601.75,1010.00 601.75,1010.00"/>
        <lane id=":14_0_1" index="1" speed="15.28" length="0.10" shape="605.05,1010.00 605.05,1010.00"/>
        <lane id=":14_0_2" index="2" speed="15.28" length="0.10" shape="608.35,1010.00 608.35,1010.00"/>
    </edge>
    <edge id=":14_3" function="internal">
        <lane id=":14_3_0" index="0" speed="15.28" length="2.41" shape="608.35,1010.00 609.18,1011.24 610.00,1011.65"/>
    </edge>
    <edge id=":14_8" function="internal">
        <lane id=":14_8_0" index="0" speed="15.28" length="2.41" shape="610.00,1011.65 610.83,1011.24 611.65,1010.00"/>
    </edge>
    <edge id=":14_4" function="internal">
        <lane id=":14_4_0" index="0" speed="15.28" length="0.10" shape="618.25,1010.00 618.25,1010.00"/>
        <lane id=":14_4_1" index="1" speed="15.28" length="0.10" shape="614.95,1010.00 614.95,1010.00"/>
        <lane id=":14_4_2" index="2" speed="15.28" length="0.10" shape="611.65,1010.00 611.65,1010.00"/>
    </edge>
    <edge id=":14_7" function="internal">
        <lane id=":14_7_0" index="0" speed="15.28" length="2.41" shape="611.65,1010.00 610.82,1008.76 610.00,1008.35"/>
    </edge>
    <edge id=":14_9" function="internal">
        <lane id=":14_9_0" index="0" speed="15.28" length="2.41" shape="610.00,1008.35 609.17,1008.76 608.35,1010.00"/>
    </edge>
    <edge id=":153_0" function="internal">
        <lane id=":153_0_0" index="0" speed="15.28" length="4.82" shape="611.65,-0.00 610.82,-1.24 610.00,-1.65 609.17,-1.24 608.35,-0.00"/>
    </edge>
    <edge id=":154_0" function="internal">
        <lane id=":154_0_0" index="0" speed="15.28" length="4.82" shape="608.35,1020.00 609.18,1021.24 610.00,1021.65 610.83,1021.24 611.65,1020.00"/>
    </edge>
    <edge id=":2_0" function="internal">
        <lane id=":2_0_0" index="0" speed="15.28" length="0.10" shape="1110.00,501.75 1110.00,501.75"/>
        <lane id=":2_0_1" index="1" speed="15.28" length="0.10" shape="1110.00,505.05 1110.00,505.05"/>
        <lane id=":2_0_2" index="2" speed="15.28" length="0.10" shape="1110.00,508.35 1110.00,508.35"/>
    </edge>
    <edge id=":2_3" function="internal">
        <lane id=":2_3_0" index="0" speed="15.28" length="2.41" shape="1110.00,508.35 1108.76,509.18 1108.35,510.00"/>
    </edge>
    <edge id=":2_8" function="internal">
        <lane id=":2_8_0" index="0" speed="15.28" length="2.41" shape="1108.35,510.00 1108.76,510.82 1110.00,511.65"/>
    </edge>
    <edge id=":2_4" function="internal">
        <lane id=":2_4_0" index="0" speed="15.28" length="0.10" shape="1110.00,518.25 1110.00,518.25"/>
        <lane id=":2_4_1" index="1" speed="15.28" length="0.10" shape="1110.00,514.95 1110.00,514.95"/>
        <lane id=":2_4_2" index="2" speed="15.28" length="0.10" shape="1110.00,511.65 1110.00,511.65"/>
    </edge>
    <edge id=":2_7" function="internal">
        <lane id=":2_7_0" index="0" speed="15.28" length="2.41" shape="1110.00,511.65 1111.24,510.82 1111.65,510.00"/>
    </edge>
    <edge id=":2_9" function="internal">
        <lane id=":2_9_0" index="0" speed="15.28" length="2.41" shape="1111.65,510.00 1111.24,509.18 1110.00,508.35"/>
    </edge>
    <edge id=":3_0" function="internal">
        <lane id=":3_0_0" index="0" speed="15.28" length="0.10" shape="501.75,10.00 501.75,10.00"/>
        <lane id=":3_0_1" index="1" speed="15.28" length="0.10" shape="505.05,10.00 505.05,10.00"/>
        <lane id=":3_0_2" index="2" speed="15.28" length="0.10" shape="508.35,10.00 508.35,10.00"/>
    </edge>
    <edge id=":3_3" function="internal">
        <lane id=":3_3_0" index="0" speed="15.28" length="2.41" shape="508.35,10.00 509.18,11.24 510.00,11.65"/>
    </edge>
    <edge id=":3_8" function="internal">
        <lane id=":3_8_0" index="0" speed="15.28" length="2.41" shape="510.00,11.65 510.82,11.24 511.65,10.00"/>
    </edge>
    <edge id=":3_4" function="internal">
        <lane id=":3_4_0" index="0" speed="15.28" length="0.10" shape="518.25,10.00 518.25,10.00"/>
        <lane id=":3_4_1" index="1" speed="15.28" length="0.10" shape="514.95,10.00 514.95,10.00"/>
        <lane id=":3_4_2" index="2" speed="15.28" length="0.10" shape="511.65,10.00 511.65,10.00"/>
    </edge>
    <edge id=":3_7" function="internal">
        <lane id=":3_7_0" index="0" speed="15.28" length="2.41" shape="511.65,10.00 510.82,8.76 510.00,8.35"/>
    </edge>
    <edge id=":3_9" function="internal">
        <lane id=":3_9_0" index="0" speed="15.28" length="2.41" shape="510.00,8.35 509.18,8.76 508.35,10.00"/>
    </edge>
    <edge id=":4_0" function="internal">
        <lane id=":4_0_0" index="0" speed="15.28" length="0.10" shape="501.75,1010.00 501.75,1010.00"/>
        <lane id=":4_0_1" index="1" speed="15.28" length="0.10" shape="505.05,1010.00 505.05,1010.00"/>
        <lane id=":4_0_2" index="2" speed="15.28" length="0.10" shape="508.35,1010.00 508.35,1010.00"/>
    </edge>
    <edge id=":4_3" function="internal">
        <lane id=":4_3_0" index="0" speed="15.28" length="2.41" shape="508.35,1010.00 509.18,1011.24 510.00,1011.65"/>
    </edge>
    <edge id=":4_8" function="internal">
        <lane id=":4_8_0" index="0" speed="15.28" length="2.41" shape="510.00,1011.65 510.82,1011.24 511.65,1010.00"/>
    </edge>
    <edge id=":4_4" function="internal">
        <lane id=":4_4_0" index="0" speed="15.28" length="0.10" shape="518.25,1010.00 518.25,1010.00"/>
        <lane id=":4_4_1" index="1" speed="15.28" length="0.10" shape="514.95,1010.00 514.95,1010.00"/>
        <lane id=":4_4_2" index="2" speed="15.28" length="0.10" shape="511.65,1010.00 511.65,1010.00"/>
    </edge>
    <edge id=":4_7" function="internal">
        <lane id=":4_7_0" index="0" speed="15.28" length="2.41" shape="511.65,1010.00 510.82,1008.76 510.00,1008.35"/>
    </edge>
    <edge id=":4_9" function="internal">
        <lane id=":4_9_0" index="0" speed="15.28" length="2.41" shape="510.00,1008.35 509.18,1008.76 508.35,1010.00"/>
    </edge>
    <edge id=":51_0" function="internal">
        <lane id=":51_0_0" index="0" speed="15.28" length="4.82" shape="0.00,508.35 -1.24,509.18 -1.65,510.00 -1.24,510.82 0.00,511.65"/>
    </edge>
    <edge id=":52_0" function="internal">
        <lane id=":52_0_0" index="0" speed="15.28" length="4.82" shape="1120.00,511.65 1121.24,510.82 1121.65,510.00 1121.24,509.18 1120.00,508.35"/>
    </edge>
    <edge id=":53_0" function="internal">
        <lane id=":53_0_0" index="0" speed="15.28" length="4.82" shape="511.65,-0.00 510.82,-1.24 510.00,-1.65 509.18,-1.24 508.35,-0.00"/>
    </edge>
    <edge id=":54_0" function="internal">
        <lane id=":54_0_0" index="0" speed="15.28" length="4.82" shape="508.35,1020.00 509.18,1021.24 510.00,1021.65 510.82,1021.24 511.65,1020.00"/>
    </edge>

    <edge id="010i" from="0" to="10" priority="78">
        <lane id="010i_0" index="0" speed="19.44" length="77.30" shape="521.35,518.25 598.65,518.25"/>
        <lane id="010i_1" index="1" speed="19.44" length="77.30" shape="521.35,514.95 598.65,514.95"/>
        <lane id="010i_2" index="2" speed="19.44" length="77.30" shape="521.35,511.65 598.65,511.65"/>
    </edge>
    <edge id="010o" from="10" to="0" priority="78">
        <lane id="010o_0" index="0" speed="19.44" length="77.30" shape="598.65,501.75 521.35,501.75"/>
        <lane id="010o_1" index="1" speed="19.44" length="77.30" shape="598.65,505.05 521.35,505.05"/>
        <lane id="010o_2" index="2" speed="19.44" length="77.30" shape="598.65,508.35 521.35,508.35"/>
    </edge>
    <edge id="13i" from="13" to="10" priority="78">
        <lane id="13i_0" index="0" speed="19.44" length="488.65" shape="601.75,10.00 601.75,498.65"/>
        <lane id="13i_1" index="1" speed="19.44" length="488.65" shape="605.05,10.00 605.05,498.65"/>
        <lane id="13i_2" index="2" speed="19.44" length="488.65" shape="608.35,10.00 608.35,498.65"/>
    </edge>
    <edge id="13o" from="10" to="13" priority="46">
        <lane id="13o_0" index="0" speed="11.11" length="488.65" shape="618.25,498.65 618.25,10.00"/>
        <lane id="13o_1" index="1" speed="11.11" length="488.65" shape="614.95,498.65 614.95,10.00"/>
        <lane id="13o_2" index="2" speed="11.11" length="488.65" shape="611.65,498.65 611.65,10.00"/>
    </edge>
    <edge id="14i" from="14" to="10" priority="78">
        <lane id="14i_0" index="0" speed="19.44" length="488.65" shape="618.25,1010.00 618.25,521.35"/>
        <lane id="14i_1" index="1" speed="19.44" length="488.65" shape="614.95,1010.00 614.95,521.35"/>
        <lane id="14i_2" index="2" speed="19.44" length="488.65" shape="611.65,1010.00 611.65,521.35"/>
    </edge>
    <edge id="14o" from="10" to="14" priority="46">
        <lane id="14o_0" index="0" speed="11.11" length="488.65" shape="601.75,521.35 601.75,1010.00"/>
        <lane id="14o_1" index="1" speed="11.11" length="488.65" shape="605.05,521.35 605.05,1010.00"/>
        <lane id="14o_2" index="2" speed="11.11" length="488.65" shape="608.35,521.35 608.35,1010.00"/>
    </edge>
    <edge id="153i" from="13" to="153" priority="78">
        <lane id="153i_0" index="0" speed="19.44" length="10.00" shape="618.25,10.00 618.25,-0.00"/>
        <lane id="153i_1" index="1" speed="19.44" length="10.00" shape="614.95,10.00 614.95,-0.00"/>
        <lane id="153i_2" index="2" speed="19.44" length="10.00" shape="611.65,10.00 611.65,-0.00"/>
    </edge>
    <edge id="153o" from="153" to="13" priority="46">
        <lane id="153o_0" index="0" speed="11.11" length="10.00" shape="601.75,-0.00 601.75,10.00"/>
        <lane id="153o_1" index="1" speed="11.11" length="10.00" shape="605.05,-0.00 605.05,10.00"/>
        <lane id="153o_2" index="2" speed="11.11" length="10.00" shape="608.35,-0.00 608.35,10.00"/>
    </edge>
    <edge id="154i" from="14" to="154" priority="78">
        <lane id="154i_0" index="0" speed="19.44" length="10.00" shape="601.75,1010.00 601.75,1020.00"/>
        <lane id="154i_1" index="1" speed="19.44" length="10.00" shape="605.05,1010.00 605.05,1020.00"/>
        <lane id="154i_2" index="2" speed="19.44" length="10.00" shape="608.35,1010.00 608.35,1020.00"/>
    </edge>
    <edge id="154o" from="154" to="14" priority="46">
        <lane id="154o_0" index="0" speed="11.11" length="10.00" shape="618.25,1020.00 618.25,1010.00"/>
        <lane id="154o_1" index="1" speed="11.11" length="10.00" shape="614.95,1020.00 614.95,1010.00"/>
        <lane id="154o_2" index="2" speed="11.11" length="10.00" shape="611.65,1020.00 611.65,1010.00"/>
    </edge>
    <edge id="1i" from="1" to="0" priority="78">
        <lane id="1i_0" index="0" speed="19.44" length="488.65" shape="10.00,518.25 498.65,518.25"/>
        <lane id="1i_1" index="1" speed="19.44" length="488.65" shape="10.00,514.95 498.65,514.95"/>
        <lane id="1i_2" index="2" speed="19.44" length="488.65" shape="10.00,511.65 498.65,511.65"/>
    </edge>
    <edge id="1o" from="0" to="1" priority="46">
        <lane id="1o_0" index="0" speed="11.11" length="488.65" shape="498.65,501.75 10.00,501.75"/>
        <lane id="1o_1" index="1" speed="11.11" length="488.65" shape="498.65,505.05 10.00,505.05"/>
        <lane id="1o_2" index="2" speed="11.11" length="488.65" shape="498.65,508.35 10.00,508.35"/>
    </edge>
    <edge id="2i" from="2" to="10" priority="78">
        <lane id="2i_0" index="0" speed="19.44" length="488.65" shape="1110.00,501.75 621.35,501.75"/>
        <lane id="2i_1" index="1" speed="19.44" length="488.65" shape="1110.00,505.05 621.35,505.05"/>
        <lane id="2i_2" index="2" speed="19.44" length="488.65" shape="1110.00,508.35 621.35,508.35"/>
    </edge>
    <edge id="2o" from="10" to="2" priority="46">
        <lane id="2o_0" index="0" speed="11.11" length="488.65" shape="621.35,518.25 1110.00,518.25"/>
        <lane id="2o_1" index="1" speed="11.11" length="488.65" shape="621.35,514.95 1110.00,514.95"/>
        <lane id="2o_2" index="2" speed="11.11" length="488.65" shape="621.35,511.65 1110.00,511.65"/>
    </edge>
    <edge id="3i" from="3" to="0" priority="78">
        <lane id="3i_0" index="0" speed="19.44" length="488.65" shape="501.75,10.00 501.75,498.65"/>
        <lane id="3i_1" index="1" speed="19.44" length="488.65" shape="505.05,10.00 505.05,498.65"/>
        <lane id="3i_2" index="2" speed="19.44" length="488.65" shape="508.35,10.00 508.35,498.65"/>
    </edge>
    <edge id="3o" from="0" to="3" priority="46">
        <lane id="3o_0" index="0" speed="11.11" length="488.65" shape="518.25,498.65 518.25,10.00"/>
        <lane id="3o_1" index="1" speed="11.11" length="488.65" shape="514.95,498.65 514.95,10.00"/>
        <lane id="3o_2" index="2" speed="11.11" length="488.65" shape="511.65,498.65 511.65,10.00"/>
    </edge>
    <edge id="4i" from="4" to="0" priority="78">
        <lane id="4i_0" index="0" speed="19.44" length="488.65" shape="518.25,1010.00 518.25,521.35"/>
        <lane id="4i_1" index="1" speed="19.44" length="488.65" shape="514.95,1010.00 514.95,521.35"/>
        <lane id="4i_2" index="2" speed="19.44" length="488.65" shape="511.65,1010.00 511.65,521.35"/>
    </edge>
    <edge id="4o" from="0" to="4" priority="46">
        <lane id="4o_0" index="0" speed="11.11" length="488.65" shape="501.75,521.35 501.75,1010.00"/>
        <lane id="4o_1" index="1" speed="11.11" length="488.65" shape="505.05,521.35 505.05,1010.00"/>
        <lane id="4o_2" index="2" speed="11.11" length="488.65" shape="508.35,521.35 508.35,1010.00"/>
    </edge>
    <edge id="51i" from="1" to="51" priority="78">
        <lane id="51i_0" index="0" speed="19.44" length="10.00" shape="10.00,501.75 0.00,501.75"/>
        <lane id="51i_1" index="1" speed="19.44" length="10.00" shape="10.00,505.05 0.00,505.05"/>
        <lane id="51i_2" index="2" speed="19.44" length="10.00" shape="10.00,508.35 0.00,508.35"/>
    </edge>
    <edge id="51o" from="51" to="1" priority="46">
        <lane id="51o_0" index="0" speed="11.11" length="10.00" shape="0.00,518.25 10.00,518.25"/>
        <lane id="51o_1" index="1" speed="11.11" length="10.00" shape="0.00,514.95 10.00,514.95"/>
        <lane id="51o_2" index="2" speed="11.11" length="10.00" shape="0.00,511.65 10.00,511.65"/>
    </edge>
    <edge id="52i" from="2" to="52" priority="78">
        <lane id="52i_0" index="0" speed="19.44" length="10.00" shape="1110.00,518.25 1120.00,518.25"/>
        <lane id="52i_1" index="1" speed="19.44" length="10.00" shape="1110.00,514.95 1120.00,514.95"/>
        <lane id="52i_2" index="2" speed="19.44" length="10.00" shape="1110.00,511.65 1120.00,511.65"/>
    </edge>
    <edge id="52o" from="52" to="2" priority="46">
        <lane id="52o_0" index="0" speed="11.11" length="10.00" shape="1120.00,501.75 1110.00,501.75"/>
        <lane id="52o_1" index="1" speed="11.11" length="10.00" shape="1120.00,505.05 1110.00,505.05"/>
        <lane id="52o_2" index="2" speed="11.11" length="10.00" shape="1120.00,508.35 1110.00,508.35"/>
    </edge>
    <edge id="53i" from="3" to="53" priority="78">
        <lane id="53i_0" index="0" speed="19.44" length="10.00" shape="518.25,10.00 518.25,-0.00"/>
        <lane id="53i_1" index="1" speed="19.44" length="10.00" shape="514.95,10.00 514.95,-0.00"/>
        <lane id="53i_2" index="2" speed="19.44" length="10.00" shape="511.65,10.00 511.65,-0.00"/>
    </edge>
    <edge id="53o" from="53" to="3" priority="46">
        <lane id="53o_0" index="0" speed="11.11" length="10.00" shape="501.75,-0.00 501.75,10.00"/>
        <lane id="53o_1" index="1" speed="11.11" length="10.00" shape="505.05,-0.00 505.05,10.00"/>
        <lane id="53o_2" index="2" speed="11.11" length="10.00" shape="508.35,-0.00 508.35,10.00"/>
    </edge>
    <edge id="54i" from="4" to="54" priority="78">
        <lane id="54i_0" index="0" speed="19.44" length="10.00" shape="501.75,1010.00 501.75,1020.00"/>
        <lane id="54i_1" index="1" speed="19.44" length="10.00" shape="505.05,1010.00 505.05,1020.00"/>
        <lane id="54i_2" index="2" speed="19.44" length="10.00" shape="508.35,1010.00 508.35,1020.00"/>
    </edge>
    <edge id="54o" from="54" to="4" priority="46">
        <lane id="54o_0" index="0" speed="11.11" length="10.00" shape="518.25,1020.00 518.25,1010.00"/>
        <lane id="54o_1" index="1" speed="11.11" length="10.00" shape="514.95,1020.00 514.95,1010.00"/>
        <lane id="54o_2" index="2" speed="11.11" length="10.00" shape="511.65,1020.00 511.65,1010.00"/>
    </edge>

    <tlLogic id="0" type="static" programID="0" offset="0">
        <phase duration="29" state="GGGGgrrrrrrGGGGgrrrrr"/>
        <phase duration="5" state="yyyygrrrrrryyyygrrrrr"/>
        <phase duration="6" state="rrrrGrrrrrrrrrrGrrrrr"/>
        <phase duration="5" state="rrrryrrrrrrrrrryrrrrr"/>
        <phase duration="29" state="rrrrrGGGGggrrrrrGGGGg"/>
        <phase duration="5" state="rrrrryyyyggrrrrryyyyg"/>
        <phase duration="6" state="rrrrrrrrrGGrrrrrrrrrG"/>
        <phase duration="5" state="rrrrrrrrryyrrrrrrrrry"/>
    </tlLogic>
    <tlLogic id="10" type="static" programID="0" offset="0">
        <phase duration="29" state="GGGGgrrrrrGGGGgrrrrrr"/>
        <phase duration="5" state="yyyygrrrrryyyygrrrrrr"/>
        <phase duration="6" state="rrrrGrrrrrrrrrGrrrrrr"/>
        <phase duration="5" state="rrrryrrrrrrrrryrrrrrr"/>
        <phase duration="29" state="rrrrrGGGGgrrrrrGGGGgg"/>
        <phase duration="5" state="rrrrryyyygrrrrryyyygg"/>
        <phase duration="6" state="rrrrrrrrrGrrrrrrrrrGG"/>
        <phase duration="5" state="rrrrrrrrryrrrrrrrrryy"/>
    </tlLogic>

    <junction id="0" type="traffic_light" x="510.00" y="510.00" incLanes="3i_0 3i_1 3i_2 010o_0 010o_1 010o_2 4i_0 4i_1 4i_2 1i_0 1i_1 1i_2" intLanes=":0_0_0 :0_1_0 :0_1_1 :0_1_2 :0_21_0 :0_5_0 :0_6_0 :0_6_1 :0_6_2 :0_22_0 :0_23_0 :0_11_0 :0_12_0 :0_12_1 :0_12_2 :0_24_0 :0_16_0 :0_17_0 :0_17_1 :0_17_2 :0_25_0" shape="500.15,498.65 519.85,498.65 521.35,500.15 521.35,519.85 519.85,521.35 500.15,521.35 498.65,519.85 498.65,500.15">
        <request index="0" response="000000000000000000000" foes="000001000000111011100" cont="0"/>