<?xml version="1.0" encoding="UTF-8"?>

<!-- generated on Wed Oct 10 18:08:47 2018 by SUMO netconvert Version 0.32.0
<?xml version="1.0" encoding="UTF-8"?>

<configuration xmlns:xsi="http://www.w3.org/2001/XMLSchema-instance" xsi:noNamespaceSchemaLocation="http://sumo.dlr.de/xsd/netconvertConfiguration.xsd">

    <input>
        <node-files value="cross_2intersections.nod.xml"/>
        <edge-files value="cross_2intersections.edg.xml"/>
        <connection-files value="cross_2intersections.con.xml"/>
    </input>

    <output>
        <output-file value="cross_2intersections_debug.net.xml"/>
    </output>

    <processing>
        <no-internal-links value="true"/>
        <lefthand value="true"/>
    </processing>

</configuration>
-->

<net version="0.27" lefthand="true" xmlns:xsi="http://www.w3.org/2001/XMLSchema-instance" xsi:noNamespaceSchemaLocation="http://sumo.dlr.de/xsd/net_file.xsd">

    <location netOffset="510.00,510.00" convBoundary="0.00,-0.00,1120.00,1020.00" origBoundary="-510.00,-510.00,610.00,510.00" projParameter="!"/>

    <edge id="010i" from="0" to="10" priority="78">
        <lane id="010i_0" index="0" speed="19.44" length="100.00" shape="521.35,518.25 598.65,518.25"/>
        <lane id="010i_1" index="1" speed="19.44" length="100.00" shape="521.35,514.95 598.65,514.95"/>
        <lane id="010i_2" index="2" speed="19.44" length="100.00" shape="521.35,511.65 598.65,511.65"/>
    </edge>
    <edge id="010o" from="10" to="0" priority="78">
        <lane id="010o_0" index="0" speed="19.44" length="100.00" shape="598.65,501.75 521.35,501.75"/>
        <lane id="010o_1" index="1" speed="19.44" length="100.00" shape="598.65,505.05 521.35,505.05"/>
        <lane id="010o_2" index="2" speed="19.44" length="100.00" shape="598.65,508.35 521.35,508.35"/>
    </edge>
    <edge id="13i" from="13" to="10" priority="78">
        <lane id="13i_0" index="0" speed="19.44" length="540.00" shape="601.75,10.00 601.75,498.65"/>
        <lane id="13i_1" index="1" speed="19.44" length="540.00" shape="605.05,10.00 605.05,498.65"/>
        <lane id="13i_2" index="2" speed="19.44" length="540.00" shape="608.35,10.00 608.35,498.65"/>
    </edge>
    <edge id="13o" from="10" to="13" priority="46">
        <lane id="13o_0" index="0" speed="11.11" length="540.00" shape="618.25,498.65 618.25,10.00"/>
        <lane id="13o_1" index="1" speed="11.11" length="540.00" shape="614.95,498.65 614.95,10.00"/>
        <lane id="13o_2" index="2" speed="11.11" length="540.00" shape="611.65,498.65 611.65,10.00"/>
    </edge>
    <edge id="14i" from="14" to="10" priority="78">
        <lane id="14i_0" index="0" speed="19.44" length="500.00" shape="618.25,1010.00 618.25,521.35"/>
        <lane id="14i_1" index="1" speed="19.44" length="500.00" shape="614.95,1010.00 614.95,521.35"/>
        <lane id="14i_2" index="2" speed="19.44" length="500.00" shape="611.65,1010.00 611.65,521.35"/>
    </edge>
    <edge id="14o" from="10" to="14" priority="46">
        <lane id="14o_0" index="0" speed="11.11" length="500.00" shape="601.75,521.35 601.75,1010.00"/>
        <lane id="14o_1" index="1" speed="11.11" length="500.00" shape="605.05,521.35 605.05,1010.00"/>
        <lane id="14o_2" index="2" speed="11.11" length="500.00" shape="608.35,521.35 608.35,1010.00"/>
    </edge>
    <edge id="153i" from="13" to="153" priority="78">
        <lane id="153i_0" index="0" speed="19.44" length="20.20" shape="618.25,10.00 618.25,-0.00"/>
        <lane id="153i_1" index="1" speed="19.44" length="20.20" shape="614.95,10.00 614.95,-0.00"/>
        <lane id="153i_2" index="2" speed="19.44" length="20.20" shape="611.65,10.00 611.65,-0.00"/>
    </edge>
    <edge id="153o" from="153" to="13" priority="46">
        <lane id="153o_0" index="0" speed="11.11" length="20.20" shape="601.75,-0.00 601.75,10.00"/>
        <lane id="153o_1" index="1" speed="11.11" length="20.20" shape="605.05,-0.00 605.05,10.00"/>
        <lane id="153o_2" index="2" speed="11.11" length="20.20" shape="608.35,-0.00 608.35,10.00"/>
    </edge>
    <edge id="154i" from="14" to="154" priority="78">
        <lane id="154i_0" index="0" speed="19.44" length="10.00" shape="601.75,1010.00 601.75,1020.00"/>
        <lane id="154i_1" index="1" speed="19.44" length="10.00" shape="605.05,1010.00 605.05,1020.00"/>
        <lane id="154i_2" index="2" speed="19.44" length="10.00" shape="608.35,1010.00 608.35,1020.00"/>
    </edge>
    <edge id="154o" from="154" to="14" priority="46">
        <lane id="154o_0" index="0" speed="11.11" length="10.00" shape="618.25,1020.00 618.25,1010.00"/>
        <lane id="154o_1" index="1" speed="11.11" length="10.00" shape="614.95,1020.00 614.95,1010.00"/>
        <lane id="154o_2" index="2" speed="11.11" length="10.00" shape="611.65,1020.00 611.65,1010.00"/>
    </edge>
    <edge id="1i" from="1" to="0" priority="78">
        <lane id="1i_0" index="0" speed="19.44" length="500.00" shape="10.00,518.25 498.65,518.25"/>
        <lane id="1i_1" index="1" speed="19.44" length="500.00" shape="10.00,514.95 498.65,514.95"/>
        <lane id="1i_2" index="2" speed="19.44" length="500.00" shape="10.00,511.65 498.65,511.65"/>
    </edge>
    <edge id="1o" from="0" to="1" priority="46">
        <lane id="1o_0" index="0" speed="11.11" length="500.00" shape="498.65,501.75 10.00,501.75"/>
        <lane id="1o_1" index="1" speed="11.11" length="500.00" shape="498.65,505.05 10.00,505.05"/>
        <lane id="1o_2" index="2" speed="11.11" length="500.00" shape="498.65,508.35 10.00,508.35"/>
    </edge>
    <edge id="2i" from="2" to="10" priority="78">
        <lane id="2i_0" index="0" speed="19.44" length="500.00" shape="1110.00,501.75 621.35,501.75"/>
        <lane id="2i_1" index="1" speed="19.44" length="500.00" shape="1110.00,505.05 621.35,505.05"/>
        <lane id="2i_2" index="2" speed="19.44" length="500.00" shape="1110.00,508.35 621.35,508.35"/>
    </edge>
    <edge id="2o" from="10" to="2" priority="46">
        <lane id="2o_0" index="0" speed="11.11" length="500.00" shape="621.35,518.25 1110.00,518.25"/>
        <lane id="2o_1" index="1" speed="11.11" length="500.00" shape="621.35,514.95 1110.00,514.95"/>
        <lane id="2o_2" index="2" speed="11.11" length="500.00" shape="621.35,511.65 1110.00,511.65"/>
    </edge>
    <edge id="3i" from="3" to="0" priority="78">
        <lane id="3i_0" index="0" speed="19.44" length="540.00" shape="501.75,10.00 501.75,498.65"/>
        <lane id="3i_1" index="1" speed="19.44" length="540.00" shape="505.05,10.00 505.05,498.65"/>
        <lane id="3i_2" index="2" speed="19.44" length="540.00" shape="508.35,10.00 508.35,498.65"/>
    </edge>
    <edge id="3o" from="0" to="3" priority="46">
        <lane id="3o_0" index="0" speed="11.11" length="540.00" shape="518.25,498.65 518.25,10.00"/>
        <lane id="3o_1" index="1" speed="11.11" length="540.00" shape="514.95,498.65 514.95,10.00"/>
        <lane id="3o_2" index="2" speed="11.11" length="540.00" shape="511.65,498.65 511.65,10.00"/>
    </edge>
    <edge id="4i" from="4" to="0" priority="78">
        <lane id="4i_0" index="0" speed="19.44" length="500.00" shape="518.25,1010.00 518.25,521.35"/>
        <lane id="4i_1" index="1" speed="19.44" length="500.00" shape="514.95,1010.00 514.95,521.35"/>
        <lane id="4i_2" index="2" speed="19.44" length="500.00" shape="511.65,1010.00 511.65,521.35"/>
    </edge>
    <edge id="4o" from="0" to="4" priority="46">
        <lane id="4o_0" index="0" speed="11.11" length="500.00" shape="501.75,521.35 501.75,1010.00"/>
        <lane id="4o_1" index="1" speed="11.11" length="500.00" shape="505.05,521.35 505.05,1010.00"/>
        <lane id="4o_2" index="2" speed="11.11" length="500.00" shape="508.35,521.35 508.35,1010.00"/>
    </edge>
    <edge id="51i" from="1" to="51" priority="78">
        <lane id="51i_0" index="0" speed="19.44" length="10.00" shape="10.00,501.75 0.00,501.75"/>
        <lane id="51i_1" index="1" speed="19.44" length="10.00" shape="10.00,505.05 0.00,505.05"/>
        <lane id="51i_2" index="2" speed="19.44" length="10.00" shape="10.00,508.35 0.00,508.35"/>
    </edge>
    <edge id="51o" from="51" to="1" priority="46">
        <lane id="51o_0" index="0" speed="11.11" length="10.00" shape="0.00,518.25 10.00,518.25"/>
        <lane id="51o_1" index="1" speed="11.11" length="10.00" shape="0.00,514.95 10.00,514.95"/>
        <lane id="51o_2" index="2" speed="11.11" length="10.00" shape="0.00,511.65 10.00,511.65"/>
    </edge>
    <edge id="52i" from="2" to="52" priority="78">
        <lane id="52i_0" index="0" speed="19.44" length="10.00" shape="1110.00,518.25 1120.00,518.25"/>
        <lane id="52i_1" index="1" speed="19.44" length="10.00" shape="1110.00,514.95 1120.00,514.95"/>
        <lane id="52i_2" index="2" speed="19.44" length="10.00" shape="1110.00,511.65 1120.00,511.65"/>
    </edge>
    <edge id="52o" from="52" to="2" priority="46">
        <lane id="52o_0" index="0" speed="11.11" length="10.00" shape="1120.00,501.75 1110.00,501.75"/>
        <lane id="52o_1" index="1" speed="11.11" length="10.00" shape="1120.00,505.05 1110.00,505.05"/>
        <lane id="52o_2" index="2" speed="11.11" length="10.00" shape="1120.00,508.35 1110.00,508.35"/>
    </edge>
    <edge id="53i" from="3" to="53" priority="78">
        <lane id="53i_0" index="0" speed="19.44" length="20.20" shape="518.25,10.00 518.25,-0.00"/>
        <lane id="53i_1" index="1" speed="19.44" length="20.20" shape="514.95,10.00 514.95,-0.00"/>
        <lane id="53i_2" index="2" speed="19.44" length="20.20" shape="511.65,10.00 511.65,-0.00"/>
    </edge>
    <edge id="53o" from="53" to="3" priority="46">
        <lane id="53o_0" index="0" speed="11.11" length="20.20" shape="501.75,-0.00 501.75,10.00"/>
        <lane id="53o_1" index="1" speed="11.11" length="20.20" shape="505.05,-0.00 505.05,10.00"/>
        <lane id="53o_2" index="2" speed="11.11" length="20.20" shape="508.35,-0.00 508.35,10.00"/>
    </edge>
    <edge id="54i" from="4" to="54" priority="78">
        <lane id="54i_0" index="0" speed="19.44" length="10.00" shape="501.75,1010.00 501.75,1020.00"/>
        <lane id="54i_1" index="1" speed="19.44" length="10.00" shape="505.05,1010.00 505.05,1020.00"/>
        <lane id="54i_2" index="2" speed="19.44" length="10.00" shape="508.35,1010.00 508.35,1020.00"/>
    </edge>
    <edge id="54o" from="54" to="4" priority="46">
        <lane id="54o_0" index="0" speed="11.11" length="10.00" shape="518.25,1020.00 518.25,1010.00"/>
        <lane id="54o_1" index="1" speed="11.11" length="10.00" shape="514.95,1020.00 514.95,1010.00"/>
        <lane id="54o_2" index="2" speed="11.11" length="10.00" shape="511.65,1020.00 511.65,1010.00"/>
    </edge>

    <tlLogic id="0" type="static" programID="0" offset="0">
        <phase duration="29" state="GGGGgrrrrrrGGGGgrrrrr"/>
        <phase duration="5" state="yyyygrrrrrryyyygrrrrr"/>
        <phase duration="6" state="rrrrGrrrrrrrrrrGrrrrr"/>
        <phase duration="5" state="rrrryrrrrrrrrrryrrrrr"/>
        <phase duration="29" state="rrrrrGGGGggrrrrrGGGGg"/>
        <phase duration="5" state="rrrrryyyyggrrrrryyyyg"/>
        <phase duration="6" state="rrrrrrrrrGGrrrrrrrrrG"/>
        <phase duration="5" state="rrrrrrrrryyrrrrrrrrry"/>
    </tlLogic>
    <tlLogic id="10" type="static" programID="0" offset="0">
        <phase duration="29" state="GGGGgrrrrrGGGGgrrrrrr"/>
        <phase duration="5" state="yyyygrrrrryyyygrrrrrr"/>
        <phase duration="6" state="rrrrGrrrrrrrrrGrrrrrr"/>
        <phase duration="5" state="rrrryrrrrrrrrryrrrrrr"/>
        <phase duration="29" state="rrrrrGGGGgrrrrrGGGGgg"/>
        <phase duration="5" state="rrrrryyyygrrrrryyyygg"/>
        <phase duration="6" state="rrrrrrrrrGrrrrrrrrrGG"/>
        <phase duration="5" state="rrrrrrrrryrrrrrrrrryy"/>
    </tlLogic>

    <junction id="0" type="traffic_light" x="510.00" y="510.00" incLanes="3i_0 3i_1 3i_2 010o_0 010o_1 010o_2 4i_0 4i_1 4i_2 1i_0 1i_1 1i_2" intLanes="" shape="500.15,498.65 519.85,498.65 521.35,500.15 521.35,519.85 519.85,521.35 500.15,521.35 498.65,519.85 498.65,500.15">
        <request index="0" response="000000000000000000000" foes="000001000000111011100"/>
        <request index="1" response="000000000000000000000" foes="111111000001111000000"/>
        <request index="2" response="000000000000000000000" foes="111111000001111000000"/>
        <request index="3" response="000000000000000000000" foes="111111000001111000000"/>
        <request index="4" response="000000111100000000000" foes="111100111111111000111"/>
        <request index="5" response="000000111000000000000" foes="100000111001110000000"/>
        <request index="6" response="000001111000000011111" foes="100001111000000011111"/>
        <request index="7" response="000001111000000011111" foes="100001111000000011111"/>
        <request index="8" response="000001111000000011111" foes="100001111000000011111"/>
        <request index="9" response="011111111000000011110" foes="011111111000011111110"/>
        <request index="10" response="011100000100000010000" foes="011100000100000010000"/>
        <request index="11" response="000000000000000000000" foes="011101110010000010000"/>
        <request index="12" response="000000000000000000000" foes="111100000001111110000"/>
        <request index="13" response="000000000000000000000" foes="111100000001111110000"/>
        <request index="14" response="000000000000000000000" foes="111100000001111110000"/>
        <request index="15" response="000000000000000001111" foes="111100011101111001111"/>
        <request index="16" response="000000000000000001110" foes="111000000001000001110"/>
        <request index="17" response="000001111100000011110" foes="000001111111000011110"/>
        <request index="18" response="000001111100000011110" foes="000001111111000011110"/>
        <request index="19" response="000001111100000011110" foes="000001111111000011110"/>
        <request index="20" response="000001111000111111110" foes="001111111000111111110"/>
    </junction>
    <junction id="1" type="priority" x="10.00" y="510.00" incLanes="1o_0 1o_1 1o_2 51o_0 51o_1 51o_2" intLanes="" shape="10.00,500.15 10.00,519.85 10.00,500.15">
        <request index="0" response="00000000" foes="10000000"/>
        <request index="1" response="00000000" foes="10000000"/>
        <request index="2" response="00000000" foes="10000000"/>
        <request index="3" response="01110000" foes="01110000"/>
        <request index="4" response="00000000" foes="00001000"/>
        <request index="5" response="00000000" foes="00001000"/>
        <request index="6" response="00000000" foes="00001000"/>
        <request index="7" response="00000111" foes="00000111"/>
    </junction>
    <junction id="10" type="traffic_light" x="610.00" y="510.00" incLanes="13i_0 13i_1 13i_2 2i_0 2i_1 2i_2 14i_0 14i_1 14i_2 010i_0 010i_1 010i_2" intLanes="" shape="600.15,498.65 619.85,498.65 621.35,500.15 621.35,519.85 619.85,521.35 600.15,521.35 598.65,519.85 598.65,500.15">
        <request index="0" response="000000000000000000000" foes="100000100000111011100"/>
        <request index="1" response="000000000000000000000" foes="011111100001111000000"/>
        <request index="2" response="000000000000000000000" foes="011111100001111000000"/>
        <request index="3" response="000000000000000000000" foes="011111100001111000000"/>
        <request index="4" response="000000011110000000000" foes="011110011111111000111"/>
        <request index="5" response="000000011100000000000" foes="010000011101110000000"/>
        <request index="6" response="000000111100000011111" foes="110000111100000011111"/>
        <request index="7" response="000000111100000011111" foes="110000111100000011111"/>
        <request index="8" response="000000111100000011111" foes="110000111100000011111"/>
        <request index="9" response="001111111100000011110" foes="001111111100011111110"/>
        <request index="10" response="000000000000000000000" foes="001110111000000010000"/>
        <request index="11" response="000000000000000000000" foes="011110000001111110000"/>
        <request index="12" response="000000000000000000000" foes="011110000001111110000"/>
        <request index="13" response="000000000000000000000" foes="011110000001111110000"/>
        <request index="14" response="000000000000000001111" foes="111110001111111001111"/>
        <request index="15" response="000000000000000001110" foes="011100000001000001110"/>
        <request index="16" response="000000111110000011110" foes="000000111111000011110"/>
        <request index="17" response="000000111110000011110" foes="000000111111000011110"/>
        <request index="18" response="000000111110000011110" foes="000000111111000011110"/>
        <request index="19" response="000000111100111111110" foes="000111111100111111110"/>
        <request index="20" response="000000100000111000001" foes="000000100000111000001"/>
    </junction>
    <junction id="13" type="priority" x="610.00" y="10.00" incLanes="153o_0 153o_1 153o_2 13o_0 13o_1 13o_2" intLanes="" shape="600.15,10.00 619.85,10.00 600.15,10.00">
        <request index="0" response="00000000" foes="10000000"/>
        <request index="1" response="00000000" foes="10000000"/>
        <request index="2" response="00000000" foes="10000000"/>
        <request index="3" response="01110000" foes="01110000"/>
        <request index="4" response="00000000" foes="00001000"/>
        <request index="5" response="00000000" foes="00001000"/>
        <request index="6" response="00000000" foes="00001000"/>
        <request index="7" response="00000111" foes="00000111"/>
    </junction>
    <junction id="14" type="priority" x="610.00" y="1010.00" incLanes="14o_0 14o_1 14o_2 154o_0 154o_1 154o_2" intLanes="" shape="600.15,1010.00 619.85,1010.00 600.15,1010.00">
        <request index="0" response="00000000" foes="10000000"/>
        <request index="1" response="00000000" foes="10000000"/>
        <request index="2" response="00000000" foes="10000000"/>
        <request index="3" response="01110000" foes="01110000"/>
        <request index="4" response="00000000" foes="00001000"/>
        <request index="5" response="00000000" foes="00001000"/>
        <request index="6" response="00000000" foes="00001000"/>
        <request index="7" response="00000111" foes="00000111"/>
    </junction>
    <junction id="153" type="priority" x="610.00" y="-0.00" incLanes="153i_0 153i_1 153i_2" intLanes="" shape="609.95,-0.00 619.85,-0.00 610.05,-0.00">
        <request index="0" response="0" foes="0"/>
    </junction>
    <junction id="154" type="priority" x="610.00" y="1020.00" incLanes="154i_0 154i_1 154i_2" intLanes="" shape="610.05,1020.00 600.15,1020.00 609.95,1020.00">
        <request index="0" response="0" foes="0"/>
    </junction>
    <junction id="2" type="priority" x="1110.00" y="510.00" incLanes="52o_0 52o_1 52o_2 2o_0 2o_1 2o_2" intLanes="" shape="1110.00,500.15 1110.00,519.85 1110.00,500.15">
        <request index="0" response="00000000" foes="10000000"/>
        <request index="1" response="00000000" foes="10000000"/>
        <request index="2" response="00000000" foes="10000000"/>
        <request index="3" response="01110000" foes="01110000"/>
        <request index="4" response="00000000" foes="00001000"/>
        <request index="5" response="00000000" foes="00001000"/>
        <request index="6" response="00000000" foes="00001000"/>
        <request index="7" response="00000111" foes="00000111"/>
    </junction>
    <junction id="3" type="priority" x="510.00" y="10.00" incLanes="53o_0 53o_1 53o_2 3o_0 3o_1 3o_2" intLanes="" shape="500.15,10.00 519.85,10.00 500.15,10.00">
        <request index="0" response="00000000" foes="10000000"/>
        <request index="1" response="00000000" foes="10000000"/>
        <request index="2" response="00000000" foes="10000000"/>
        <request index="3" response="01110000" foes="01110000"/>
        <request index="4" response="00000000" foes="00001000"/>
        <request index="5" response="00000000" foes="00001000"/>
        <request index="6" response="00000000" foes="00001000"/>
        <request index="7" response="00000111" foes="00000111"/>
    </junction>
    <junction id="4" type="priority" x="510.00" y="1010.00" incLanes="4o_0 4o_1 4o_2 54o_0 54o_1 54o_2" intLanes="" shape="500.15,1010.00 519.85,1010.00 500.15,1010.00">
        <request index="0" response="00000000" foes="10000000"/>
        <request index="1" response="00000000" foes="10000000"/>
        <request index="2" response="00000000" foes="10000000"/>
        <request index="3" response="01110000" foes="01110000"/>
        <request index="4" response="00000000" foes="00001000"/>
        <request index="5" response="00000000" foes="00001000"/>
        <request index="6" response="00000000" foes="00001000"/>
        <request index="7" response="00000111" foes="00000111"/>
    </junction>
    <junction id="51" type="priority" x="0.00" y="510.00" incLanes="51i_0 51i_1 51i_2" intLanes="" shape="0.00,510.05 0.00,500.15 0.00,509.95">
        <request index="0" response="0" foes="0"/>
    </junction>
    <junction id="52" type="priority" x="1120.00" y="510.00" incLanes="52i_0 52i_1 52i_2" intLanes="" shape="1120.00,509.95 1120.00,519.85 1120.00,510.05">
        <request index="0" response="0" foes="0"/>
    </junction>
    <junction id="53" type="priority" x="510.00" y="-0.00" incLanes="53i_0 53i_1 53i_2" intLanes="" shape="509.95,-0.00 519.85,-0.00 510.05,-0.00">
        <request index="0" response="0" foes="0"/>
    </junction>
    <junction id="54" type="priority" x="510.00" y="1020.00" incLanes="54i_0 54i_1 54i_2" intLanes="" shape="510.05,1020.00 500.15,1020.00 509.95,1020.00">
        <request index="0" response="0" foes="0"/>
    </junction>

    <connection from="010i" to="14o" fromLane="0" toLane="0" tl="10" linkIndex="15" dir="l" state="o"/>
    <connection from="010i" to="2o" fromLane="0" toLane="0" tl="10" linkIndex="16" dir="s" state="o"/>
    <connection from="010i" to="2o" fromLane="1" toLane="1" tl="10" linkIndex="17" dir="s" state="o"/>
    <connection from="010i" to="2o" fromLane="2" toLane="2" tl="10" linkIndex="18" dir="s" state="o"/>
    <connection from="010i" to="13o" fromLane="2" toLane="2" tl="10" linkIndex="19" dir="r" state="o"/>
    <connection from="010i" to="010o" fromLane="2" toLane="2" tl="10" linkIndex="20" dir="T" state="o"/>
    <connection from="010o" to="3o" fromLane="0" toLane="0" tl="0" linkIndex="5" dir="l" state="o"/>
    <connection from="010o" to="1o" fromLane="0" toLane="0" tl="0" linkIndex="6" dir="s" state="o"/>
    <connection from="010o" to="1o" fromLane="1" toLane="1" tl="0" linkIndex="7" dir="s" state="o"/>
    <connection from="010o" to="1o" fromLane="2" toLane="2" tl="0" linkIndex="8" dir="s" state="o"/>
    <connection from="010o" to="4o" fromLane="2" toLane="2" tl="0" linkIndex="9" dir="r" state="o"/>
    <connection from="010o" to="010i" fromLane="2" toLane="2" tl="0" linkIndex="10" dir="T" state="o"/>
    <connection from="13i" to="010o" fromLane="0" toLane="0" tl="10" linkIndex="0" dir="l" state="o"/>
    <connection from="13i" to="14o" fromLane="0" toLane="0" tl="10" linkIndex="1" dir="s" state="o"/>
    <connection from="13i" to="14o" fromLane="1" toLane="1" tl="10" linkIndex="2" dir="s" state="o"/>
    <connection from="13i" to="14o" fromLane="2" toLane="2" tl="10" linkIndex="3" dir="s" state="o"/>
    <connection from="13i" to="2o" fromLane="2" toLane="2" tl="10" linkIndex="4" dir="r" state="o"/>
    <connection from="13o" to="153i" fromLane="0" toLane="0" dir="s" state="M"/>
    <connection from="13o" to="153i" fromLane="1" toLane="1" dir="s" state="M"/>
    <connection from="13o" to="153i" fromLane="2" toLane="2" dir="s" state="M"/>
    <connection from="13o" to="13i" fromLane="2" toLane="2" dir="T" state="m"/>
    <connection from="14i" to="2o" fromLane="0" toLane="0" tl="10" linkIndex="10" dir="l" state="o"/>
    <connection from="14i" to="13o" fromLane="0" toLane="0" tl="10" linkIndex="11" dir="s" state="o"/>
    <connection from="14i" to="13o" fromLane="1" toLane="1" tl="10" linkIndex="12" dir="s" state="o"/>
    <connection from="14i" to="13o" fromLane="2" toLane="2" tl="10" linkIndex="13" dir="s" state="o"/>
    <connection from="14i" to="010o" fromLane="2" toLane="2" tl="10" linkIndex="14" dir="r" state="o"/>
    <connection from="14o" to="154i" fromLane="0" toLane="0" dir="s" state="M"/>
    <connection from="14o" to="154i" fromLane="1" toLane="1" dir="s" state="M"/>
    <connection from="14o" to="154i" fromLane="2" toLane="2" dir="s" state="M"/>
    <connection from="14o" to="14i" fromLane="2" toLane="2" dir="T" state="m"/>
    <connection from="153i" to="153o" fromLane="2" toLane="2" dir="T" state="M"/>
    <connection from="153o" to="13i" fromLane="0" toLane="0" dir="s" state="M"/>
    <connection from="153o" to="13i" fromLane="1" toLane="1" dir="s" state="M"/>
    <connection from="153o" to="13i" fromLane="2" toLane="2" dir="s" state="M"/>
    <connection from="153o" to="153i" fromLane="2" toLane="2" dir="T" state="m"/>
    <connection from="154i" to="154o" fromLane="2" toLane="2" dir="T" state="M"/>
    <connection from="154o" to="14i" fromLane="0" toLane="0" dir="s" state="M"/>
    <connection from="154o" to="14i" fromLane="1" toLane="1" dir="s" state="M"/>
    <connection from="154o" to="14i" fromLane="2" toLane="2" dir="s" state="M"/>
    <connection from="154o" to="154i" fromLane="2" toLane="2" dir="T" state="m"/>
    <connection from="1i" to="4o" fromLane="0" toLane="0" tl="0" linkIndex="16" dir="l" state="o"/>
    <connection from="1i" to="010i" fromLane="0" toLane="0" tl="0" linkIndex="17" dir="s" state="o"/>
    <connection from="1i" to="010i" fromLane="1" toLane="1" tl="0" linkIndex="18" dir="s" state="o"/>
    <connection from="1i" to="010i" fromLane="2" toLane="2" tl="0" linkIndex="19" dir="s" state="o"/>
    <connection from="1i" to="3o" fromLane="2" toLane="2" tl="0" linkIndex="20" dir="r" state="o"/>
    <connection from="1o" to="51i" fromLane="0" toLane="0" dir="s" state="M"/>
    <connection from="1o" to="51i" fromLane="1" toLane="1" dir="s" state="M"/>
    <connection from="1o" to="51i" fromLane="2" toLane="2" dir="s" state="M"/>
    <connection from="1o" to="1i" fromLane="2" toLane="2" dir="T" state="m"/>
    <connection from="2i" to="13o" fromLane="0" toLane="0" tl="10" linkIndex="5" dir="l" state="o"/>
    <connection from="2i" to="010o" fromLane="0" toLane="0" tl="10" linkIndex="6" dir="s" state="o"/>
    <connection from="2i" to="010o" fromLane="1" toLane="1" tl="10" linkIndex="7" dir="s" state="o"/>
    <connection from="2i" to="010o" fromLane="2" toLane="2" tl="10" linkIndex="8" dir="s" state="o"/>
    <connection from="2i" to="14o" fromLane="2" toLane="2" tl="10" linkIndex="9" dir="r" state="o"/>
    <connection from="2o" to="52i" fromLane="0" toLane="0" dir="s" state="M"/>
    <connection from="2o" to="52i" fromLane="1" toLane="1" dir="s" state="M"/>
    <connection from="2o" to="52i" fromLane="2" toLane="2" dir="s" state="M"/>
    <connection from="2o" to="2i" fromLane="2" toLane="2" dir="T" state="m"/>
    <connection from="3i" to="1o" fromLane="0" toLane="0" tl="0" linkIndex="0" dir="l" state="o"/>
    <connection from="3i" to="4o" fromLane="0" toLane="0" tl="0" linkIndex="1" dir="s" state="o"/>
    <connection from="3i" to="4o" fromLane="1" toLane="1" tl="0" linkIndex="2" dir="s" state="o"/>
    <connection from="3i" to="4o" fromLane="2" toLane="2" tl="0" linkIndex="3" dir="s" state="o"/>
    <connection from="3i" to="010i" fromLane="2" toLane="2" tl="0" linkIndex="4" dir="r" state="o"/>
    <connection from="3o" to="53i" fromLane="0" toLane="0" dir="s" state="M"/>
    <connection from="3o" to="53i" fromLane="1" toLane="1" dir="s" state="M"/>
    <connection from="3o" to="53i" fromLane="2" toLane="2" dir="s" state="M"/>
    <connection from="3o" to="3i" fromLane="2" toLane="2" dir="T" state="m"/>
    <connection from="4i" to="010i" fromLane="0" toLane="0" tl="0" linkIndex="11" dir="l" state="o"/>
    <connection from="4i" to="3o" fromLane="0" toLane="0" tl="0" linkIndex="12" dir="s" state="o"/>
    <connection from="4i" to="3o" fromLane="1" toLane="1" tl="0" linkIndex="13" dir="s" state="o"/>
    <connection from="4i" to="3o" fromLane="2" toLane="2" tl="0" linkIndex="14" dir="s" state="o"/>
    <connection from="4i" to="1o" fromLane="2" toLane="2" tl="0" linkIndex="15" dir="r" state="o"/>
    <connection from="4o" to="54i" fromLane="0" toLane="0" dir="s" state="M"/>
    <connection from="4o" to="54i" fromLane="1" toLane="1" dir="s" state="M"/>
    <connection from="4o" to="54i" fromLane="2" toLane="2" dir="s" state="M"/>
    <connection from="4o" to="4i" fromLane="2" toLane="2" dir="T" state="m"/>
    <connection from="51i" to="51o" fromLane="2" toLane="2" dir="T" state="M"/>
    <connection from="51o" to="1i" fromLane="0" toLane="0" dir="s" state="M"/>
    <connection from="51o" to="1i" fromLane="1" toLane="1" dir="s" state="M"/>
    <connection from="51o" to="1i" fromLane="2" toLane="2" dir="s" state="M"/>
    <connection from="51o" to="51i" fromLane="2" toLane="2" dir="T" state="m"/>
    <connection from="52i" to="52o" fromLane="2" toLane="2" dir="T" state="M"/>
    <connection from="52o" to="2i" fromLane="0" toLane="0" dir="s" state="M"/>
    <connection from="52o" to="2i" fromLane="1" toLane="1" dir="s" state="M"/>
    <connection from="52o" to="2i" fromLane="2" toLane="2" dir="s" state="M"/>
    <connection from="52o" to="52i" fromLane="2" toLane="2" dir="T" state="m"/>
    <connection from="53i" to="53o" fromLane="2" toLane="2" dir="T" state="M"/>
    <connection from="53o" to="3i" fromLane="0" toLane="0" dir="s" state="M"/>
    <connection from="53o" to="3i" fromLane="1" toLane="1" dir="s" state="M"/>
    <connection from="53o" to="3i" fromLane="2" toLane="2" dir="s" state="M"/>
    <connection from="53o" to="53i" fromLane="2" toLane="2" dir="T" state="m"/>