<?xml version="1.0" encoding="UTF-8"?>
<nodes>
   <node id="0" x="0.0" y="0.0"  type="traffic_light"/>
   <node id="01" x="0.0" y="+100.0"  type="traffic_light"/>
   <node id="10" x="+100.0" y="0.0"  type="traffic_light"/>
   <node id="11" x="+100.0" y="+100.0"  type="traffic_light"/>

   <node id="1" x="-500.0" y="0.0" type="priority"/>
   <node id="101" x="-500.0" y="+100.0" type="priority"/>
   <node id="2" x="+600.0" y="0.0" type="priority"/>
   <node id="102" x="+600.0" y="+100.0" type="priority"/>

   <node id="3" x="0.0" y="-500.0" type="priority"/>
   <node id="4" x="0.0" y="+600.0" type="priority"/>
   <node id="13" x="+100.0" y="-500.0" type="priority"/>
   <node id="14" x="+100.0" y="+600.0" type="priority"/>
   
   <node id="51" x="-510.0" y="0.0" type="priority"/>
   <node id="1051" x="-510.0" y="+100.0" type="priority"/>
   <node id="52" x="+610.0" y="0.0" type="priority"/>
   <node id="1052" x="+610.0" y="+100.0" type="priority"/>

   <node id="53" x="0.0" y="-510.0" type="priority"/>
   <node id="54" x="0.0" y="+610.0" type="priority"/>  
   <node id="153" x="+100.0" y="-510.0" type="priority"/>
   <node id="154" x="+100.0" y="+610.0" type="priority"/>
</nodes>
