<routes>
    <!--<vTypeDistribution id="mixed">-->
        <!--<vType id="car" vClass="passenger" speedDev="0.2" latAlignment="compact" probability="0.3"/>-->
        <!--<vType id="moped" vClass="moped" speedDev="0.4" latAlignment="compact" probability="0.7"/>-->
    <!--</vTypeDistribution>-->
    <vType id="type1" vClass="bicycle"/>
    <vType id="type2" vClass="motorcycle"/>
    <vType id="type3" vClass="passenger"/>
    <vType id="type4" vClass="passenger"/>
    <vType id="type5" vClass="truck"/>
    <vType id="type6" vClass="bus"/>

    <route id="r0" edges="51o 1i 2o 52i"/>


    <route id="r1" edges="51o 1i 4o 54i"/>
    <route id="r2" edges="51o 1i 3o 53i"/>
    <route id="r3" edges="54o 4i 3o 53i"/>
    <route id="r4" edges="54o 4i 1o 51i"/>
    <route id="r5" edges="54o 4i 2o 52i"/>
    <route id="r6" edges="52o 2i 1o 51i"/>


    <!--<route id="r0" edges="beg middle end rend">-->
        <!--<stop lane="middle_0" endPos="50" duration="20"/>-->
    <!--</route>-->


    <route id="r7" edges="52o 2i 4o 54i"/>
    <route id="r8" edges="52o 2i 3o 53i"/>
    <route id="r9" edges="53o 3i 4o 54i"/>
    <route id="r10" edges="53o 3i 1o 51i"/>
    <route id="r11" edges="53o 3i 2o 52i"/>
    <vehicle id='0' type='type2' route='r0' depart='5'/>
    <vehicle id='1' type='type2' route='r1' depart='5'/>
    <vehicle id='2' type='type2' route='r2' depart='5'/>
    <vehicle id='3' type='type2' route='r3' depart='5'/>
    <vehicle id='4' type='type2' route='r4' depart='5'/>
    <vehicle id='5' type='type2' route='r5' depart='10'/>
    <vehicle id='6' type='type2' route='r6' depart='10'/>
    <vehicle id='7' type='type2' route='r7' depart='10'/>
    <vehicle id='8' type='type2' route='r8' depart='10'/>
    <vehicle id='9' type='type2' route='r9' depart='10'/>
    <vehicle id='10' type='type3' route='r10' depart='15'/>
    <vehicle id='11' type='type3' route='r11' depart='15'/>
    <vehicle id='12' type='type3' route='r0' depart='15'/>
    <vehicle id='13' type='type3' route='r1' depart='15'/>
    <vehicle id='14' type='type3' route='r2' depart='15'/>
    <vehicle id='15' type='type3' route='r3' depart='20'/>
    <vehicle id='16' type='type3' route='r4' depart='20'/>
    <vehicle id='17' type='type3' route='r5' depart='20'/>
    <vehicle id='18' type='type3' route='r6' depart='20'/>
    <vehicle id='19' type='type3' route='r7' depart='20'/>
    <vehicle id='20' type='type4' route='r8' depart='25'/>
    <vehicle id='21' type='type4' route='r9' depart='25'/>
    <vehicle id='22' type='type4' route='r10' depart='25'/>
    <vehicle id='23' type='type4' route='r11' depart='25'/>
    <vehicle id='24' type='type4' route='r0' depart='25'/>
    <vehicle id='25' type='type4' route='r1' depart='30'/>
    <vehicle id='26' type='type4' route='r2' depart='30'/>
    <vehicle id='27' type='type4' route='r3' depart='30'/>
    <vehicle id='28' type='type4' route='r4' depart='30'/>
    <vehicle id='29' type='type4' route='r5' depart='30'/>
    <vehicle id='30' type='type5' route='r6' depart='35'/>
    <vehicle id='31' type='type5' route='r7' depart='35'/>
    <vehicle id='32' type='type5' route='r8' depart='35'/>
    <vehicle id='33' type='type5' route='r9' depart='35'/>
    <vehicle id='34' type='type5' route='r10' depart='35'/>
    <vehicle id='35' type='type5' route='r11' depart='40'/>
    <vehicle id='36' type='type5' route='r0' depart='40'/>
    <vehicle id='37' type='type5' route='r1' depart='40'/>
    <vehicle id='38' type='type5' route='r2' depart='40'/>
    <vehicle id='39' type='type5' route='r3' depart='40'/>
    <vehicle id='40' type='type6' route='r4' depart='45'/>
    <vehicle id='41' type='type6' route='r5' depart='45'/>
    <vehicle id='42' type='type6' route='r6' depart='45'/>
    <vehicle id='43' type='type6' route='r7' depart='45'/>
    <vehicle id='44' type='type6' route='r8' depart='45'/>
    <vehicle id='45' type='type6' route='r9' depart='50'/>
    <vehicle id='46' type='type6' route='r10' depart='50'/>
    <vehicle id='47' type='type6' route='r11' depart='50'/>
    <vehicle id='48' type='type6' route='r0' depart='50'/>
    <vehicle id='49' type='type6' route='r1' depart='50'/>
    <vehicle id='50' type='type1' route='r2' depart='55'/>
    <vehicle id='51' type='type1' route='r3' depart='55'/>
    <vehicle id='52' type='type1' route='r4' depart='55'/>
    <vehicle id='53' type='type1' route='r5' depart='55'/>
    <vehicle id='54' type='type1' route='r6' depart='55'/>
    <vehicle id='55' type='type1' route='r7' depart='60'/>
    <vehicle id='56' type='type1' route='r8' depart='60'/>
    <vehicle id='57' type='type1' route='r9' depart='60'/>
    <vehicle id='58' type='type1' route='r10' depart='60'/>
    <vehicle id='59' type='type1' route='r11' depart='60'/>
    <vehicle id='60' type='type2' route='r0' depart='65'/>
    <vehicle id='61' type='type2' route='r1' depart='65'/>
    <vehicle id='62' type='type2' route='r2' depart='65'/>
    <vehicle id='63' type='type2' route='r3' depart='65'/>
    <vehicle id='64' type='type2' route='r4' depart='65'/>
    <vehicle id='65' type='type2' route='r5' depart='70'/>
    <vehicle id='66' type='type2' route='r6' depart='70'/>
    <vehicle id='67' type='type2' route='r7' depart='70'/>
    <vehicle id='68' type='type2' route='r8' depart='70'/>
    <vehicle id='69' type='type2' route='r9' depart='70'/>
    <vehicle id='70' type='type3' route='r10' depart='75'/>
    <vehicle id='71' type='type3' route='r11' depart='75'/>
    <vehicle id='72' type='type3' route='r0' depart='75'/>
    <vehicle id='73' type='type3' route='r1' depart='75'/>
    <vehicle id='74' type='type3' route='r2' depart='75'/>
    <vehicle id='75' type='type3' route='r3' depart='80'/>
    <vehicle id='76' type='type3' route='r4' depart='80'/>
    <vehicle id='77' type='type3' route='r5' depart='80'/>
    <vehicle id='78' type='type3' route='r6' depart='80'/>
    <vehicle id='79' type='type3' route='r7' depart='80'/>
    <vehicle id='80' type='type4' route='r8' depart='85'/>
    <vehicle id='81' type='type4' route='r9' depart='85'/>
    <vehicle id='82' type='type4' route='r10' depart='85'/>
    <vehicle id='83' type='type4' route='r11' depart='85'/>
    <vehicle id='84' type='type4' route='r0' depart='85'/>
    <vehicle id='85' type='type4' route='r1' depart='90'/>
    <vehicle id='86' type='type4' route='r2' depart='90'/>
    <vehicle id='87' type='type4' route='r3' depart='90'/>
    <vehicle id='88' type='type4' route='r4' depart='90'/>
    <vehicle id='89' type='type4' route='r5' depart='90'/>
    <vehicle id='90' type='type5' route='r6' depart='95'/>
    <vehicle id='91' type='type5' route='r7' depart='95'/>
    <vehicle id='92' type='type5' route='r8' depart='95'/>
    <vehicle id='93' type='type5' route='r9' depart='95'/>
    <vehicle id='94' type='type5' route='r10' depart='95'/>
    <vehicle id='95' type='type5' route='r11' depart='100'/>
    <vehicle id='96' type='type5' route='r0' depart='100'/>
    <vehicle id='97' type='type5' route='r1' depart='100'/>
    <vehicle id='98' type='type5' route='r2' depart='100'/>
    <vehicle id='99' type='type5' route='r3' depart='100'/>
    <vehicle id='100' type='type6' route='r4' depart='105'/>
    <vehicle id='101' type='type6' route='r5' depart='105'/>
    <vehicle id='102' type='type6' route='r6' depart='105'/>
    <vehicle id='103' type='type6' route='r7' depart='105'/>
    <vehicle id='104' type='type6' route='r8' depart='105'/>
    <vehicle id='105' type='type6' route='r9' depart='110'/>
    <vehicle id='106' type='type6' route='r10' depart='110'/>
    <vehicle id='107' type='type6' route='r11' depart='110'/>
    <vehicle id='108' type='type6' route='r0' depart='110'/>
    <vehicle id='109' type='type6' route='r1' depart='110'/>
    <vehicle id='110' type='type1' route='r2' depart='115'/>
    <vehicle id='111' type='type1' route='r3' depart='115'/>
    <vehicle id='112' type='type1' route='r4' depart='115'/>
    <vehicle id='113' type='type1' route='r5' depart='115'/>
    <vehicle id='114' type='type1' route='r6' depart='115'/>
    <vehicle id='115' type='type1' route='r7' depart='120'/>
    <vehicle id='116' type='type1' route='r8' depart='120'/>
    <vehicle id='117' type='type1' route='r9' depart='120'/>
    <vehicle id='118' type='type1' route='r10' depart='120'/>
    <vehicle id='119' type='type1' route='r11' depart='120'/>
    <vehicle id='120' type='type2' route='r0' depart='125'/>
    <vehicle id='121' type='type2' route='r1' depart='125'/>
    <vehicle id='122' type='type2' route='r2' depart='125'/>
    <vehicle id='123' type='type2' route='r3' depart='125'/>
    <vehicle id='124' type='type2' route='r4' depart='125'/>
    <vehicle id='125' type='type2' route='r5' depart='130'/>
    <vehicle id='126' type='type2' route='r6' depart='130'/>
    <vehicle id='127' type='type2' route='r7' depart='130'/>
    <vehicle id='128' type='type2' route='r8' depart='130'/>
    <vehicle id='129' type='type2' route='r9' depart='130'/>
    <vehicle id='130' type='type3' route='r10' depart='135'/>
    <vehicle id='131' type='type3' route='r11' depart='135'/>
    <vehicle id='132' type='type3' route='r0' depart='135'/>
    <vehicle id='133' type='type3' route='r1' depart='135'/>
    <vehicle id='134' type='type3' route='r2' depart='135'/>
    <vehicle id='135' type='type3' route='r3' depart='140'/>
    <vehicle id='136' type='type3' route='r4' depart='140'/>
    <vehicle id='137' type='type3' route='r5' depart='140'/>
    <vehicle id='138' type='type3' route='r6' depart='140'/>
    <vehicle id='139' type='type3' route='r7' depart='140'/>
    <vehicle id='140' type='type4' route='r8' depart='145'/>
    <vehicle id='141' type='type4' route='r9' depart='145'/>
    <vehicle id='142' type='type4' route='r10' depart='145'/>
    <vehicle id='143' type='type4' route='r11' depart='145'/>
    <vehicle id='144' type='type4' route='r0' depart='145'/>
    <vehicle id='145' type='type4' route='r1' depart='150'/>
    <vehicle id='146' type='type4' route='r2' depart='150'/>
    <vehicle id='147' type='type4' route='r3' depart='150'/>
    <vehicle id='148' type='type4' route='r4' depart='150'/>
    <vehicle id='149' type='type4' route='r5' depart='150'/>
    <vehicle id='150' type='type5' route='r6' depart='155'/>
    <vehicle id='151' type='type5' route='r7' depart='155'/>
    <vehicle id='152' type='type5' route='r8' depart='155'/>
    <vehicle id='153' type='type5' route='r9' depart='155'/>
    <vehicle id='154' type='type5' route='r10' depart='155'/>
    <vehicle id='155' type='type5' route='r11' depart='160'/>
    <vehicle id='156' type='type5' route='r0' depart='160'/>
    <vehicle id='157' type='type5' route='r1' depart='160'/>
    <vehicle id='158' type='type5' route='r2' depart='160'/>
    <vehicle id='159' type='type5' route='r3' depart='160'/>
    <vehicle id='160' type='type6' route='r4' depart='165'/>
    <vehicle id='161' type='type6' route='r5' depart='165'/>
    <vehicle id='162' type='type6' route='r6' depart='165'/>
    <vehicle id='163' type='type6' route='r7' depart='165'/>
    <vehicle id='164' type='type6' route='r8' depart='165'/>
    <vehicle id='165' type='type6' route='r9' depart='170'/>
    <vehicle id='166' type='type6' route='r10' depart='170'/>
    <vehicle id='167' type='type6' route='r11' depart='170'/>
    <vehicle id='168' type='type6' route='r0' depart='170'/>
    <vehicle id='169' type='type6' route='r1' depart='170'/>
    <vehicle id='170' type='type1' route='r2' depart='175'/>
    <vehicle id='171' type='type1' route='r3' depart='175'/>
    <vehicle id='172' type='type1' route='r4' depart='175'/>
    <vehicle id='173' type='type1' route='r5' depart='175'/>
    <vehicle id='174' type='type1' route='r6' depart='175'/>
    <vehicle id='175' type='type1' route='r7' depart='180'/>
    <vehicle id='176' type='type1' route='r8' depart='180'/>
    <vehicle id='177' type='type1' route='r9' depart='180'/>
    <vehicle id='178' type='type1' route='r10' depart='180'/>
    <vehicle id='179' type='type1' route='r11' depart='180'/>
    <vehicle id='180' type='type2' route='r0' depart='185'/>
    <vehicle id='181' type='type2' route='r1' depart='185'/>
    <vehicle id='182' type='type2' route='r2' depart='185'/>
    <vehicle id='183' type='type2' route='r3' depart='185'/>
    <vehicle id='184' type='type2' route='r4' depart='185'/>
    <vehicle id='185' type='type2' route='r5' depart='190'/>
    <vehicle id='186' type='type2' route='r6' depart='190'/>
    <vehicle id='187' type='type2' route='r7' depart='190'/>
    <vehicle id='188' type='type2' route='r8' depart='190'/>
    <vehicle id='189' type='type2' route='r9' depart='190'/>
    <vehicle id='190' type='type3' route='r10' depart='195'/>
    <vehicle id='191' type='type3' route='r11' depart='195'/>
    <vehicle id='192' type='type3' route='r0' depart='195'/>
    <vehicle id='193' type='type3' route='r1' depart='195'/>
    <vehicle id='194' type='type3' route='r2' depart='195'/>
    <vehicle id='195' type='type3' route='r3' depart='200'/>
    <vehicle id='196' type='type3' route='r4' depart='200'/>
    <vehicle id='197' type='type3' route='r5' depart='200'/>
    <vehicle id='198' type='type3' route='r6' depart='200'/>
    <vehicle id='199' type='type3' route='r7' depart='200'/>
</routes>



