<routes>
    <!--<vTypeDistribution id="mixed">-->
        <!--<vType id="car" vClass="passenger" speedDev="0.2" latAlignment="compact" probability="0.3"/>-->
        <!--<vType id="moped" vClass="moped" speedDev="0.4" latAlignment="compact" probability="0.7"/>-->
    <!--</vTypeDistribution>-->
    <vType id="type1" vClass="bicycle"/>
    <vType id="type2" vClass="motorcycle"/>
    <vType id="type3" vClass="passenger"/>
    <vType id="type4" vClass="passenger"/>
    <vType id="type5" vClass="truck"/>
    <vType id="type6" vClass="bus"/>

    <route id="r1" edges="51o 1i 2o 52i"/>
    <route id="r4" edges="54o 4i 1o 51i"/>
    <route id="r1_stop" edges="51o 1i 2o 52i">
        <stop lane="1i_1" endPos="50" duration="30"/>
    </route>

    <vehicle id='0' type='type2' route='r4' depart='5'/>
<vehicle id='1' type='type2' route='r4' depart='5'/>
<vehicle id='2' type='type2' route='r4' depart='5'/>
<vehicle id='3' type='type2' route='r4' depart='5'/>
<vehicle id='4' type='type2' route='r4' depart='5'/>
<vehicle id='5' type='type2' route='r4' depart='10'/>
<vehicle id='6' type='type2' route='r4' depart='10'/>
<vehicle id='7' type='type2' route='r4' depart='10'/>
<vehicle id='8' type='type2' route='r4' depart='10'/>
<vehicle id='9' type='type2' route='r4' depart='10'/>
<vehicle id='10' type='type3' route='r4' depart='15'/>
<vehicle id='11' type='type3' route='r4' depart='15'/>
<vehicle id='12' type='type3' route='r4' depart='15'/>
<vehicle id='13' type='type3' route='r4' depart='15'/>
<vehicle id='14' type='type3' route='r4' depart='15'/>
<vehicle id='15' type='type3' route='r4' depart='20'/>
<vehicle id='16' type='type3' route='r4' depart='20'/>
<vehicle id='17' type='type3' route='r4' depart='20'/>
<vehicle id='18' type='type3' route='r4' depart='20'/>
<vehicle id='19' type='type3' route='r4' depart='20'/>
<vehicle id='20' type='type4' route='r4' depart='25'/>
<vehicle id='21' type='type4' route='r4' depart='25'/>
<vehicle id='22' type='type4' route='r4' depart='25'/>
<vehicle id='23' type='type4' route='r4' depart='25'/>
<vehicle id='24' type='type4' route='r4' depart='25'/>
<vehicle id='25' type='type4' route='r4' depart='30'/>
<vehicle id='26' type='type4' route='r4' depart='30'/>
<vehicle id='27' type='type4' route='r4' depart='30'/>
<vehicle id='28' type='type4' route='r4' depart='30'/>
<vehicle id='29' type='type4' route='r4' depart='30'/>
<vehicle id='30' type='type5' route='r4' depart='35'/>
<vehicle id='31' type='type5' route='r4' depart='35'/>
<vehicle id='32' type='type5' route='r4' depart='35'/>
<vehicle id='33' type='type5' route='r4' depart='35'/>
<vehicle id='34' type='type5' route='r4' depart='35'/>
<vehicle id='35' type='type5' route='r4' depart='40'/>
<vehicle id='36' type='type5' route='r4' depart='40'/>
<vehicle id='37' type='type5' route='r4' depart='40'/>
<vehicle id='38' type='type5' route='r4' depart='40'/>
<vehicle id='39' type='type5' route='r4' depart='40'/>
<vehicle id='40' type='type6' route='r4' depart='45'/>
<vehicle id='41' type='type6' route='r4' depart='45'/>
<vehicle id='42' type='type6' route='r4' depart='45'/>
<vehicle id='43' type='type6' route='r4' depart='45'/>
<vehicle id='44' type='type6' route='r4' depart='45'/>
<vehicle id='45' type='type6' route='r4' depart='50'/>
<vehicle id='46' type='type6' route='r4' depart='50'/>
<vehicle id='47' type='type6' route='r4' depart='50'/>
<vehicle id='48' type='type6' route='r4' depart='50'/>
<vehicle id='49' type='type6' route='r4' depart='50'/>
<vehicle id='50' type='type1' route='r4' depart='55'/>
<vehicle id='51' type='type1' route='r4' depart='55'/>
<vehicle id='52' type='type1' route='r4' depart='55'/>
<vehicle id='53' type='type1' route='r4' depart='55'/>
<vehicle id='54' type='type1' route='r4' depart='55'/>
<vehicle id='55' type='type1' route='r4' depart='60'/>
<vehicle id='56' type='type1' route='r4' depart='60'/>
<vehicle id='57' type='type1' route='r4' depart='60'/>
<vehicle id='58' type='type1' route='r4' depart='60'/>
<vehicle id='59' type='type1' route='r4' depart='60'/>
<vehicle id='60' type='type2' route='r4' depart='65'/>
<vehicle id='61' type='type2' route='r4' depart='65'/>
<vehicle id='62' type='type2' route='r4' depart='65'/>
<vehicle id='63' type='type2' route='r4' depart='65'/>
<vehicle id='64' type='type2' route='r4' depart='65'/>
<vehicle id='65' type='type2' route='r4' depart='70'/>
<vehicle id='66' type='type2' route='r1_stop' depart='70'/>
<vehicle id='67' type='type2' route='r1_stop' depart='70'/>
<vehicle id='68' type='type2' route='r1_stop' depart='70'/>
<vehicle id='69' type='type2' route='r1_stop' depart='70'/>
<vehicle id='70' type='type3' route='r1_stop' depart='75'/>
<vehicle id='71' type='type3' route='r1_stop' depart='75'/>
<vehicle id='72' type='type3' route='r1_stop' depart='75'/>
<vehicle id='73' type='type3' route='r1_stop' depart='75'/>
<vehicle id='74' type='type3' route='r1_stop' depart='75'/>
<vehicle id='75' type='type3' route='r1_stop' depart='80'/>
<vehicle id='76' type='type3' route='r1_stop' depart='80'/>
<vehicle id='77' type='type3' route='r1_stop' depart='80'/>
<vehicle id='78' type='type3' route='r1_stop' depart='80'/>
<vehicle id='79' type='type3' route='r1_stop' depart='80'/>
<vehicle id='80' type='type4' route='r1_stop' depart='85'/>
<vehicle id='81' type='type4' route='r1_stop' depart='85'/>
<vehicle id='82' type='type4' route='r1_stop' depart='85'/>
<vehicle id='83' type='type4' route='r1_stop' depart='85'/>
<vehicle id='84' type='type4' route='r1_stop' depart='85'/>
<vehicle id='85' type='type4' route='r1_stop' depart='90'/>
<vehicle id='86' type='type4' route='r1_stop' depart='90'/>
<vehicle id='87' type='type4' route='r1_stop' depart='90'/>
<vehicle id='88' type='type4' route='r1_stop' depart='90'/>
<vehicle id='89' type='type4' route='r1_stop' depart='90'/>
<vehicle id='90' type='type5' route='r1_stop' depart='95'/>
<vehicle id='91' type='type5' route='r1_stop' depart='95'/>
<vehicle id='92' type='type5' route='r1_stop' depart='95'/>
<vehicle id='93' type='type5' route='r1_stop' depart='95'/>
<vehicle id='94' type='type5' route='r1_stop' depart='95'/>
<vehicle id='95' type='type5' route='r1_stop' depart='100'/>
<vehicle id='96' type='type5' route='r1_stop' depart='100'/>
<vehicle id='97' type='type5' route='r1_stop' depart='100'/>
<vehicle id='98' type='type5' route='r1_stop' depart='100'/>
<vehicle id='99' type='type5' route='r1_stop' depart='100'/>
<vehicle id='100' type='type6' route='r1_stop' depart='105'/>
<vehicle id='101' type='type6' route='r1_stop' depart='105'/>
<vehicle id='102' type='type6' route='r1_stop' depart='105'/>
<vehicle id='103' type='type6' route='r1_stop' depart='105'/>
<vehicle id='104' type='type6' route='r1_stop' depart='105'/>
<vehicle id='105' type='type6' route='r1_stop' depart='110'/>
<vehicle id='106' type='type6' route='r1_stop' depart='110'/>
<vehicle id='107' type='type6' route='r1_stop' depart='110'/>
<vehicle id='108' type='type6' route='r1_stop' depart='110'/>
<vehicle id='109' type='type6' route='r1_stop' depart='110'/>
<vehicle id='110' type='type1' route='r1_stop' depart='115'/>
<vehicle id='111' type='type1' route='r1_stop' depart='115'/>
<vehicle id='112' type='type1' route='r1_stop' depart='115'/>
<vehicle id='113' type='type1' route='r1_stop' depart='115'/>
<vehicle id='114' type='type1' route='r1_stop' depart='115'/>
<vehicle id='115' type='type1' route='r1_stop' depart='120'/>
<vehicle id='116' type='type1' route='r1_stop' depart='120'/>
<vehicle id='117' type='type1' route='r1_stop' depart='120'/>
<vehicle id='118' type='type1' route='r1_stop' depart='120'/>
<vehicle id='119' type='type1' route='r1_stop' depart='120'/>
<vehicle id='120' type='type2' route='r1_stop' depart='125'/>
<vehicle id='121' type='type2' route='r1_stop' depart='125'/>
<vehicle id='122' type='type2' route='r1_stop' depart='125'/>
<vehicle id='123' type='type2' route='r1_stop' depart='125'/>
<vehicle id='124' type='type2' route='r1_stop' depart='125'/>
<vehicle id='125' type='type2' route='r1_stop' depart='130'/>
<vehicle id='126' type='type2' route='r1_stop' depart='130'/>
<vehicle id='127' type='type2' route='r1_stop' depart='130'/>
<vehicle id='128' type='type2' route='r1_stop' depart='130'/>
<vehicle id='129' type='type2' route='r1_stop' depart='130'/>
<vehicle id='130' type='type3' route='r1_stop' depart='135'/>
<vehicle id='131' type='type3' route='r1_stop' depart='135'/>
<vehicle id='132' type='type3' route='r4' depart='135'/>
<vehicle id='133' type='type3' route='r4' depart='135'/>
<vehicle id='134' type='type3' route='r4' depart='135'/>
<vehicle id='135' type='type3' route='r4' depart='140'/>
<vehicle id='136' type='type3' route='r4' depart='140'/>
<vehicle id='137' type='type3' route='r4' depart='140'/>
<vehicle id='138' type='type3' route='r4' depart='140'/>
<vehicle id='139' type='type3' route='r4' depart='140'/>
<vehicle id='140' type='type4' route='r4' depart='145'/>
<vehicle id='141' type='type4' route='r4' depart='145'/>
<vehicle id='142' type='type4' route='r4' depart='145'/>
<vehicle id='143' type='type4' route='r4' depart='145'/>
<vehicle id='144' type='type4' route='r4' depart='145'/>
<vehicle id='145' type='type4' route='r4' depart='150'/>
<vehicle id='146' type='type4' route='r4' depart='150'/>
<vehicle id='147' type='type4' route='r4' depart='150'/>
<vehicle id='148' type='type4' route='r4' depart='150'/>
<vehicle id='149' type='type4' route='r4' depart='150'/>
<vehicle id='150' type='type5' route='r4' depart='155'/>
<vehicle id='151' type='type5' route='r4' depart='155'/>
<vehicle id='152' type='type5' route='r4' depart='155'/>
<vehicle id='153' type='type5' route='r4' depart='155'/>
<vehicle id='154' type='type5' route='r4' depart='155'/>
<vehicle id='155' type='type5' route='r4' depart='160'/>
<vehicle id='156' type='type5' route='r4' depart='160'/>
<vehicle id='157' type='type5' route='r4' depart='160'/>
<vehicle id='158' type='type5' route='r4' depart='160'/>
<vehicle id='159' type='type5' route='r4' depart='160'/>
<vehicle id='160' type='type6' route='r4' depart='165'/>
<vehicle id='161' type='type6' route='r4' depart='165'/>
<vehicle id='162' type='type6' route='r4' depart='165'/>
<vehicle id='163' type='type6' route='r4' depart='165'/>
<vehicle id='164' type='type6' route='r4' depart='165'/>
<vehicle id='165' type='type6' route='r4' depart='170'/>
<vehicle id='166' type='type6' route='r4' depart='170'/>
<vehicle id='167' type='type6' route='r4' depart='170'/>
<vehicle id='168' type='type6' route='r4' depart='170'/>
<vehicle id='169' type='type6' route='r4' depart='170'/>
<vehicle id='170' type='type1' route='r4' depart='175'/>
<vehicle id='171' type='type1' route='r4' depart='175'/>
<vehicle id='172' type='type1' route='r4' depart='175'/>
<vehicle id='173' type='type1' route='r4' depart='175'/>
<vehicle id='174' type='type1' route='r4' depart='175'/>
<vehicle id='175' type='type1' route='r4' depart='180'/>
<vehicle id='176' type='type1' route='r4' depart='180'/>
<vehicle id='177' type='type1' route='r4' depart='180'/>
<vehicle id='178' type='type1' route='r4' depart='180'/>
<vehicle id='179' type='type1' route='r4' depart='180'/>
<vehicle id='180' type='type2' route='r4' depart='185'/>
<vehicle id='181' type='type2' route='r4' depart='185'/>
<vehicle id='182' type='type2' route='r4' depart='185'/>
<vehicle id='183' type='type2' route='r4' depart='185'/>
<vehicle id='184' type='type2' route='r4' depart='185'/>
<vehicle id='185' type='type2' route='r4' depart='190'/>
<vehicle id='186' type='type2' route='r4' depart='190'/>
<vehicle id='187' type='type2' route='r4' depart='190'/>
<vehicle id='188' type='type2' route='r4' depart='190'/>
<vehicle id='189' type='type2' route='r4' depart='190'/>
<vehicle id='190' type='type3' route='r4' depart='195'/>
<vehicle id='191' type='type3' route='r4' depart='195'/>
<vehicle id='192' type='type3' route='r4' depart='195'/>
<vehicle id='193' type='type3' route='r4' depart='195'/>
<vehicle id='194' type='type3' route='r4' depart='195'/>
<vehicle id='195' type='type3' route='r4' depart='200'/>
<vehicle id='196' type='type3' route='r4' depart='200'/>
<vehicle id='197' type='type3' route='r4' depart='200'/>
<vehicle id='198' type='type3' route='r1_stop' depart='200'/>
<vehicle id='199' type='type3' route='r1_stop' depart='200'/>
<vehicle id='200' type='type4' route='r1_stop' depart='205'/>
<vehicle id='201' type='type4' route='r1_stop' depart='205'/>
<vehicle id='202' type='type4' route='r1_stop' depart='205'/>
<vehicle id='203' type='type4' route='r1_stop' depart='205'/>
<vehicle id='204' type='type4' route='r1_stop' depart='205'/>
<vehicle id='205' type='type4' route='r1_stop' depart='210'/>
<vehicle id='206' type='type4' route='r1_stop' depart='210'/>
<vehicle id='207' type='type4' route='r1_stop' depart='210'/>
<vehicle id='208' type='type4' route='r1_stop' depart='210'/>
<vehicle id='209' type='type4' route='r1_stop' depart='210'/>
<vehicle id='210' type='type5' route='r1_stop' depart='215'/>
<vehicle id='211' type='type5' route='r1_stop' depart='215'/>
<vehicle id='212' type='type5' route='r1_stop' depart='215'/>
<vehicle id='213' type='type5' route='r1_stop' depart='215'/>
<vehicle id='214' type='type5' route='r1_stop' depart='215'/>
<vehicle id='215' type='type5' route='r1_stop' depart='220'/>
<vehicle id='216' type='type5' route='r1_stop' depart='220'/>
<vehicle id='217' type='type5' route='r1_stop' depart='220'/>
<vehicle id='218' type='type5' route='r1_stop' depart='220'/>
<vehicle id='219' type='type5' route='r1_stop' depart='220'/>
<vehicle id='220' type='type6' route='r1_stop' depart='225'/>
<vehicle id='221' type='type6' route='r1_stop' depart='225'/>
<vehicle id='222' type='type6' route='r1_stop' depart='225'/>
<vehicle id='223' type='type6' route='r1_stop' depart='225'/>
<vehicle id='224' type='type6' route='r1_stop' depart='225'/>
<vehicle id='225' type='type6' route='r1_stop' depart='230'/>
<vehicle id='226' type='type6' route='r1_stop' depart='230'/>
<vehicle id='227' type='type6' route='r1_stop' depart='230'/>
<vehicle id='228' type='type6' route='r1_stop' depart='230'/>
<vehicle id='229' type='type6' route='r1_stop' depart='230'/>
<vehicle id='230' type='type1' route='r1_stop' depart='235'/>
<vehicle id='231' type='type1' route='r1_stop' depart='235'/>
<vehicle id='232' type='type1' route='r1_stop' depart='235'/>
<vehicle id='233' type='type1' route='r1_stop' depart='235'/>
<vehicle id='234' type='type1' route='r1_stop' depart='235'/>
<vehicle id='235' type='type1' route='r1_stop' depart='240'/>
<vehicle id='236' type='type1' route='r1_stop' depart='240'/>
<vehicle id='237' type='type1' route='r1_stop' depart='240'/>
<vehicle id='238' type='type1' route='r1_stop' depart='240'/>
<vehicle id='239' type='type1' route='r1_stop' depart='240'/>
<vehicle id='240' type='type2' route='r1_stop' depart='245'/>
<vehicle id='241' type='type2' route='r1_stop' depart='245'/>
<vehicle id='242' type='type2' route='r1_stop' depart='245'/>
<vehicle id='243' type='type2' route='r1_stop' depart='245'/>
<vehicle id='244' type='type2' route='r1_stop' depart='245'/>
<vehicle id='245' type='type2' route='r1_stop' depart='250'/>
<vehicle id='246' type='type2' route='r1_stop' depart='250'/>
<vehicle id='247' type='type2' route='r1_stop' depart='250'/>
<vehicle id='248' type='type2' route='r1_stop' depart='250'/>
<vehicle id='249' type='type2' route='r1_stop' depart='250'/>
<vehicle id='250' type='type3' route='r1_stop' depart='255'/>
<vehicle id='251' type='type3' route='r1_stop' depart='255'/>
<vehicle id='252' type='type3' route='r1_stop' depart='255'/>
<vehicle id='253' type='type3' route='r1_stop' depart='255'/>
<vehicle id='254' type='type3' route='r1_stop' depart='255'/>
<vehicle id='255' type='type3' route='r1_stop' depart='260'/>
<vehicle id='256' type='type3' route='r1_stop' depart='260'/>
<vehicle id='257' type='type3' route='r1_stop' depart='260'/>
<vehicle id='258' type='type3' route='r1_stop' depart='260'/>
<vehicle id='259' type='type3' route='r1_stop' depart='260'/>
<vehicle id='260' type='type4' route='r1_stop' depart='265'/>
<vehicle id='261' type='type4' route='r1_stop' depart='265'/>
<vehicle id='262' type='type4' route='r1_stop' depart='265'/>
<vehicle id='263' type='type4' route='r1_stop' depart='265'/>
<vehicle id='264' type='type4' route='r4' depart='265'/>
<vehicle id='265' type='type4' route='r4' depart='270'/>
<vehicle id='266' type='type4' route='r4' depart='270'/>
<vehicle id='267' type='type4' route='r4' depart='270'/>
<vehicle id='268' type='type4' route='r4' depart='270'/>
<vehicle id='269' type='type4' route='r4' depart='270'/>
<vehicle id='270' type='type5' route='r4' depart='275'/>
<vehicle id='271' type='type5' route='r4' depart='275'/>
<vehicle id='272' type='type5' route='r4' depart='275'/>
<vehicle id='273' type='type5' route='r4' depart='275'/>
<vehicle id='274' type='type5' route='r4' depart='275'/>
<vehicle id='275' type='type5' route='r4' depart='280'/>
<vehicle id='276' type='type5' route='r4' depart='280'/>
<vehicle id='277' type='type5' route='r4' depart='280'/>
<vehicle id='278' type='type5' route='r4' depart='280'/>
<vehicle id='279' type='type5' route='r4' depart='280'/>
<vehicle id='280' type='type6' route='r4' depart='285'/>
<vehicle id='281' type='type6' route='r4' depart='285'/>
<vehicle id='282' type='type6' route='r4' depart='285'/>
<vehicle id='283' type='type6' route='r4' depart='285'/>
<vehicle id='284' type='type6' route='r4' depart='285'/>
<vehicle id='285' type='type6' route='r4' depart='290'/>
<vehicle id='286' type='type6' route='r4' depart='290'/>
<vehicle id='287' type='type6' route='r4' depart='290'/>
<vehicle id='288' type='type6' route='r4' depart='290'/>
<vehicle id='289' type='type6' route='r4' depart='290'/>
<vehicle id='290' type='type1' route='r4' depart='295'/>
<vehicle id='291' type='type1' route='r4' depart='295'/>
<vehicle id='292' type='type1' route='r4' depart='295'/>
<vehicle id='293' type='type1' route='r4' depart='295'/>
<vehicle id='294' type='type1' route='r4' depart='295'/>
<vehicle id='295' type='type1' route='r4' depart='300'/>
<vehicle id='296' type='type1' route='r4' depart='300'/>
<vehicle id='297' type='type1' route='r4' depart='300'/>
<vehicle id='298' type='type1' route='r4' depart='300'/>
<vehicle id='299' type='type1' route='r4' depart='300'/>
<vehicle id='300' type='type2' route='r4' depart='305'/>
<vehicle id='301' type='type2' route='r4' depart='305'/>
<vehicle id='302' type='type2' route='r4' depart='305'/>
<vehicle id='303' type='type2' route='r4' depart='305'/>
<vehicle id='304' type='type2' route='r4' depart='305'/>
<vehicle id='305' type='type2' route='r4' depart='310'/>
<vehicle id='306' type='type2' route='r4' depart='310'/>
<vehicle id='307' type='type2' route='r4' depart='310'/>
<vehicle id='308' type='type2' route='r4' depart='310'/>
<vehicle id='309' type='type2' route='r4' depart='310'/>
<vehicle id='310' type='type3' route='r4' depart='315'/>
<vehicle id='311' type='type3' route='r4' depart='315'/>
<vehicle id='312' type='type3' route='r4' depart='315'/>
<vehicle id='313' type='type3' route='r4' depart='315'/>
<vehicle id='314' type='type3' route='r4' depart='315'/>
<vehicle id='315' type='type3' route='r4' depart='320'/>
<vehicle id='316' type='type3' route='r4' depart='320'/>
<vehicle id='317' type='type3' route='r4' depart='320'/>
<vehicle id='318' type='type3' route='r4' depart='320'/>
<vehicle id='319' type='type3' route='r4' depart='320'/>
<vehicle id='320' type='type4' route='r4' depart='325'/>
<vehicle id='321' type='type4' route='r4' depart='325'/>
<vehicle id='322' type='type4' route='r4' depart='325'/>
<vehicle id='323' type='type4' route='r4' depart='325'/>
<vehicle id='324' type='type4' route='r4' depart='325'/>
<vehicle id='325' type='type4' route='r4' depart='330'/>
<vehicle id='326' type='type4' route='r4' depart='330'/>
<vehicle id='327' type='type4' route='r4' depart='330'/>
<vehicle id='328' type='type4' route='r4' depart='330'/>
<vehicle id='329' type='type4' route='r4' depart='330'/>
<vehicle id='330' type='type5' route='r1_stop' depart='335'/>
<vehicle id='331' type='type5' route='r1_stop' depart='335'/>
<vehicle id='332' type='type5' route='r1_stop' depart='335'/>
<vehicle id='333' type='type5' route='r1_stop' depart='335'/>
<vehicle id='334' type='type5' route='r1_stop' depart='335'/>
<vehicle id='335' type='type5' route='r1_stop' depart='340'/>
<vehicle id='336' type='type5' route='r1_stop' depart='340'/>
<vehicle id='337' type='type5' route='r1_stop' depart='340'/>
<vehicle id='338' type='type5' route='r1_stop' depart='340'/>
<vehicle id='339' type='type5' route='r1_stop' depart='340'/>
<vehicle id='340' type='type6' route='r1_stop' depart='345'/>
<vehicle id='341' type='type6' route='r1_stop' depart='345'/>
<vehicle id='342' type='type6' route='r1_stop' depart='345'/>
<vehicle id='343' type='type6' route='r1_stop' depart='345'/>
<vehicle id='344' type='type6' route='r1_stop' depart='345'/>
<vehicle id='345' type='type6' route='r1_stop' depart='350'/>
<vehicle id='346' type='type6' route='r1_stop' depart='350'/>
<vehicle id='347' type='type6' route='r1_stop' depart='350'/>
<vehicle id='348' type='type6' route='r1_stop' depart='350'/>
<vehicle id='349' type='type6' route='r1_stop' depart='350'/>
<vehicle id='350' type='type1' route='r1_stop' depart='355'/>
<vehicle id='351' type='type1' route='r1_stop' depart='355'/>
<vehicle id='352' type='type1' route='r1_stop' depart='355'/>
<vehicle id='353' type='type1' route='r1_stop' depart='355'/>
<vehicle id='354' type='type1' route='r1_stop' depart='355'/>
<vehicle id='355' type='type1' route='r1_stop' depart='360'/>
<vehicle id='356' type='type1' route='r1_stop' depart='360'/>
<vehicle id='357' type='type1' route='r1_stop' depart='360'/>
<vehicle id='358' type='type1' route='r1_stop' depart='360'/>
<vehicle id='359' type='type1' route='r1_stop' depart='360'/>
<vehicle id='360' type='type2' route='r1_stop' depart='365'/>
<vehicle id='361' type='type2' route='r1_stop' depart='365'/>
<vehicle id='362' type='type2' route='r1_stop' depart='365'/>
<vehicle id='363' type='type2' route='r1_stop' depart='365'/>
<vehicle id='364' type='type2' route='r1_stop' depart='365'/>
<vehicle id='365' type='type2' route='r1_stop' depart='370'/>
<vehicle id='366' type='type2' route='r1_stop' depart='370'/>
<vehicle id='367' type='type2' route='r1_stop' depart='370'/>
<vehicle id='368' type='type2' route='r1_stop' depart='370'/>
<vehicle id='369' type='type2' route='r1_stop' depart='370'/>
<vehicle id='370' type='type3' route='r1_stop' depart='375'/>
<vehicle id='371' type='type3' route='r1_stop' depart='375'/>
<vehicle id='372' type='type3' route='r1_stop' depart='375'/>
<vehicle id='373' type='type3' route='r1_stop' depart='375'/>
<vehicle id='374' type='type3' route='r1_stop' depart='375'/>
<vehicle id='375' type='type3' route='r1_stop' depart='380'/>
<vehicle id='376' type='type3' route='r1_stop' depart='380'/>
<vehicle id='377' type='type3' route='r1_stop' depart='380'/>
<vehicle id='378' type='type3' route='r1_stop' depart='380'/>
<vehicle id='379' type='type3' route='r1_stop' depart='380'/>
<vehicle id='380' type='type4' route='r1_stop' depart='385'/>
<vehicle id='381' type='type4' route='r1_stop' depart='385'/>
<vehicle id='382' type='type4' route='r1_stop' depart='385'/>
<vehicle id='383' type='type4' route='r1_stop' depart='385'/>
<vehicle id='384' type='type4' route='r1_stop' depart='385'/>
<vehicle id='385' type='type4' route='r1_stop' depart='390'/>
<vehicle id='386' type='type4' route='r1_stop' depart='390'/>
<vehicle id='387' type='type4' route='r1_stop' depart='390'/>
<vehicle id='388' type='type4' route='r1_stop' depart='390'/>
<vehicle id='389' type='type4' route='r1_stop' depart='390'/>
<vehicle id='390' type='type5' route='r1_stop' depart='395'/>
<vehicle id='391' type='type5' route='r1_stop' depart='395'/>
<vehicle id='392' type='type5' route='r1_stop' depart='395'/>
<vehicle id='393' type='type5' route='r1_stop' depart='395'/>
<vehicle id='394' type='type5' route='r1_stop' depart='395'/>
<vehicle id='395' type='type5' route='r1_stop' depart='400'/>
<vehicle id='396' type='type5' route='r4' depart='400'/>
<vehicle id='397' type='type5' route='r4' depart='400'/>
<vehicle id='398' type='type5' route='r4' depart='400'/>
<vehicle id='399' type='type5' route='r4' depart='400'/>
<vehicle id='400' type='type6' route='r4' depart='405'/>
<vehicle id='401' type='type6' route='r4' depart='405'/>
<vehicle id='402' type='type6' route='r4' depart='405'/>
<vehicle id='403' type='type6' route='r4' depart='405'/>
<vehicle id='404' type='type6' route='r4' depart='405'/>
<vehicle id='405' type='type6' route='r4' depart='410'/>
<vehicle id='406' type='type6' route='r4' depart='410'/>
<vehicle id='407' type='type6' route='r4' depart='410'/>
<vehicle id='408' type='type6' route='r4' depart='410'/>
<vehicle id='409' type='type6' route='r4' depart='410'/>
<vehicle id='410' type='type1' route='r4' depart='415'/>
<vehicle id='411' type='type1' route='r4' depart='415'/>
<vehicle id='412' type='type1' route='r4' depart='415'/>
<vehicle id='413' type='type1' route='r4' depart='415'/>
<vehicle id='414' type='type1' route='r4' depart='415'/>
<vehicle id='415' type='type1' route='r4' depart='420'/>
<vehicle id='416' type='type1' route='r4' depart='420'/>
<vehicle id='417' type='type1' route='r4' depart='420'/>
<vehicle id='418' type='type1' route='r4' depart='420'/>
<vehicle id='419' type='type1' route='r4' depart='420'/>
<vehicle id='420' type='type2' route='r4' depart='425'/>
<vehicle id='421' type='type2' route='r4' depart='425'/>
<vehicle id='422' type='type2' route='r4' depart='425'/>
<vehicle id='423' type='type2' route='r4' depart='425'/>
<vehicle id='424' type='type2' route='r4' depart='425'/>
<vehicle id='425' type='type2' route='r4' depart='430'/>
<vehicle id='426' type='type2' route='r4' depart='430'/>
<vehicle id='427' type='type2' route='r4' depart='430'/>
<vehicle id='428' type='type2' route='r4' depart='430'/>
<vehicle id='429' type='type2' route='r4' depart='430'/>
<vehicle id='430' type='type3' route='r4' depart='435'/>
<vehicle id='431' type='type3' route='r4' depart='435'/>
<vehicle id='432' type='type3' route='r4' depart='435'/>
<vehicle id='433' type='type3' route='r4' depart='435'/>
<vehicle id='434' type='type3' route='r4' depart='435'/>
<vehicle id='435' type='type3' route='r4' depart='440'/>
<vehicle id='436' type='type3' route='r4' depart='440'/>
<vehicle id='437' type='type3' route='r4' depart='440'/>
<vehicle id='438' type='type3' route='r4' depart='440'/>
<vehicle id='439' type='type3' route='r4' depart='440'/>
<vehicle id='440' type='type4' route='r4' depart='445'/>
<vehicle id='441' type='type4' route='r4' depart='445'/>
<vehicle id='442' type='type4' route='r4' depart='445'/>
<vehicle id='443' type='type4' route='r4' depart='445'/>
<vehicle id='444' type='type4' route='r4' depart='445'/>
<vehicle id='445' type='type4' route='r4' depart='450'/>
<vehicle id='446' type='type4' route='r4' depart='450'/>
<vehicle id='447' type='type4' route='r4' depart='450'/>
<vehicle id='448' type='type4' route='r4' depart='450'/>
<vehicle id='449' type='type4' route='r4' depart='450'/>
<vehicle id='450' type='type5' route='r4' depart='455'/>
<vehicle id='451' type='type5' route='r4' depart='455'/>
<vehicle id='452' type='type5' route='r4' depart='455'/>
<vehicle id='453' type='type5' route='r4' depart='455'/>
<vehicle id='454' type='type5' route='r4' depart='455'/>
<vehicle id='455' type='type5' route='r4' depart='460'/>
<vehicle id='456' type='type5' route='r4' depart='460'/>
<vehicle id='457' type='type5' route='r4' depart='460'/>
<vehicle id='458' type='type5' route='r4' depart='460'/>
<vehicle id='459' type='type5' route='r4' depart='460'/>
<vehicle id='460' type='type6' route='r4' depart='465'/>
<vehicle id='461' type='type6' route='r4' depart='465'/>
<vehicle id='462' type='type6' route='r1_stop' depart='465'/>
<vehicle id='463' type='type6' route='r1_stop' depart='465'/>
<vehicle id='464' type='type6' route='r1_stop' depart='465'/>
<vehicle id='465' type='type6' route='r1_stop' depart='470'/>
<vehicle id='466' type='type6' route='r1_stop' depart='470'/>
<vehicle id='467' type='type6' route='r1_stop' depart='470'/>
<vehicle id='468' type='type6' route='r1_stop' depart='470'/>
<vehicle id='469' type='type6' route='r1_stop' depart='470'/>
<vehicle id='470' type='type1' route='r1_stop' depart='475'/>
<vehicle id='471' type='type1' route='r1_stop' depart='475'/>
<vehicle id='472' type='type1' route='r1_stop' depart='475'/>
<vehicle id='473' type='type1' route='r1_stop' depart='475'/>
<vehicle id='474' type='type1' route='r1_stop' depart='475'/>
<vehicle id='475' type='type1' route='r1_stop' depart='480'/>
<vehicle id='476' type='type1' route='r1_stop' depart='480'/>
<vehicle id='477' type='type1' route='r1_stop' depart='480'/>
<vehicle id='478' type='type1' route='r1_stop' depart='480'/>
<vehicle id='479' type='type1' route='r1_stop' depart='480'/>
<vehicle id='480' type='type2' route='r1_stop' depart='485'/>
<vehicle id='481' type='type2' route='r1_stop' depart='485'/>
<vehicle id='482' type='type2' route='r1_stop' depart='485'/>
<vehicle id='483' type='type2' route='r1_stop' depart='485'/>
<vehicle id='484' type='type2' route='r1_stop' depart='485'/>
<vehicle id='485' type='type2' route='r1_stop' depart='490'/>
<vehicle id='486' type='type2' route='r1_stop' depart='490'/>
<vehicle id='487' type='type2' route='r1_stop' depart='490'/>
<vehicle id='488' type='type2' route='r1_stop' depart='490'/>
<vehicle id='489' type='type2' route='r1_stop' depart='490'/>
<vehicle id='490' type='type3' route='r1_stop' depart='495'/>
<vehicle id='491' type='type3' route='r1_stop' depart='495'/>
<vehicle id='492' type='type3' route='r1_stop' depart='495'/>
<vehicle id='493' type='type3' route='r1_stop' depart='495'/>
<vehicle id='494' type='type3' route='r1_stop' depart='495'/>
<vehicle id='495' type='type3' route='r1_stop' depart='500'/>