<?xml version="1.0" encoding="UTF-8"?>

<!-- generated on Sat Feb  9 10:01:49 2019 by SUMO netconvert Version 0.32.0
<?xml version="1.0" encoding="UTF-8"?>

<configuration xmlns:xsi="http://www.w3.org/2001/XMLSchema-instance" xsi:noNamespaceSchemaLocation="http://sumo.dlr.de/xsd/netconvertConfiguration.xsd">

    <input>
        <node-files value="single_intersection.nod.xml"/>
        <edge-files value="cross_2lanes.edg.xml"/>
        <connection-files value="cross.con.xml"/>
    </input>

    <output>
        <output-file value="single_intersection.net.xml"/>
    </output>

    <processing>
        <lefthand value="true"/>
    </processing>

</configuration>
-->

<net version="0.27" lefthand="true" xmlns:xsi="http://www.w3.org/2001/XMLSchema-instance" xsi:noNamespaceSchemaLocation="http://sumo.dlr.de/xsd/net_file.xsd">

    <location netOffset="120.00,120.00" convBoundary="0.00,-0.00,240.00,240.00" origBoundary="-120.00,-120.00,120.00,120.00" projParameter="!"/>

    <edge id=":0_0" function="internal">
        <lane id=":0_0_0" index="0" speed="15.28" length="5.00" shape="111.75,108.65 111.56,110.01 110.98,110.98 110.01,111.56 108.65,111.75"/>
    </edge>
    <edge id=":0_1" function="internal">
        <lane id=":0_1_0" index="0" speed="15.28" length="22.70" shape="111.75,108.65 111.75,131.35"/>
        <lane id=":0_1_1" index="1" speed="15.28" length="22.70" shape="115.05,108.65 115.05,131.35"/>
        <lane id=":0_1_2" index="2" speed="15.28" length="22.70" shape="118.35,108.65 118.35,131.35"/>
    </edge>
    <edge id=":0_4" function="internal">
        <lane id=":0_4_0" index="0" speed="15.28" length="7.47" shape="118.35,108.65 119.16,114.34 120.05,115.82"/>
    </edge>
    <edge id=":0_20" function="internal">
        <lane id=":0_20_0" index="0" speed="15.28" length="13.50" shape="120.05,115.82 121.60,118.40 125.66,120.84 131.35,121.65"/>
    </edge>
    <edge id=":0_5" function="internal">
        <lane id=":0_5_0" index="0" speed="15.28" length="5.00" shape="131.35,111.75 129.99,111.56 129.02,110.98 128.44,110.01 128.25,108.65"/>
    </edge>
    <edge id=":0_6" function="internal">
        <lane id=":0_6_0" index="0" speed="15.28" length="22.70" shape="131.35,111.75 108.65,111.75"/>
        <lane id=":0_6_1" index="1" speed="15.28" length="22.70" shape="131.35,115.05 108.65,115.05"/>
        <lane id=":0_6_2" index="2" speed="15.28" length="22.70" shape="131.35,118.35 108.65,118.35"/>
    </edge>
    <edge id=":0_9" function="internal">
        <lane id=":0_9_0" index="0" speed="15.28" length="7.47" shape="131.35,118.35 125.66,119.16 124.18,120.05"/>
    </edge>
    <edge id=":0_21" function="internal">
        <lane id=":0_21_0" index="0" speed="15.28" length="13.50" shape="124.18,120.05 121.60,121.60 119.16,125.66 118.35,131.35"/>
    </edge>
    <edge id=":0_10" function="internal">
        <lane id=":0_10_0" index="0" speed="15.28" length="5.00" shape="128.25,131.35 128.44,129.99 129.02,129.02 129.99,128.44 131.35,128.25"/>
    </edge>
    <edge id=":0_11" function="internal">
        <lane id=":0_11_0" index="0" speed="15.28" length="22.70" shape="128.25,131.35 128.25,108.65"/>
        <lane id=":0_11_1" index="1" speed="15.28" length="22.70" shape="124.95,131.35 124.95,108.65"/>
        <lane id=":0_11_2" index="2" speed="15.28" length="22.70" shape="121.65,131.35 121.65,108.65"/>
    </edge>
    <edge id=":0_14" function="internal">
        <lane id=":0_14_0" index="0" speed="15.28" length="7.47" shape="121.65,131.35 120.84,125.66 119.95,124.18"/>
    </edge>
    <edge id=":0_22" function="internal">
        <lane id=":0_22_0" index="0" speed="15.28" length="13.50" shape="119.95,124.18 118.40,121.60 114.34,119.16 108.65,118.35"/>
    </edge>
    <edge id=":0_15" function="internal">
        <lane id=":0_15_0" index="0" speed="15.28" length="5.00" shape="108.65,128.25 110.01,128.44 110.98,129.02 111.56,129.99 111.75,131.35"/>
    </edge>
    <edge id=":0_16" function="internal">
        <lane id=":0_16_0" index="0" speed="15.28" length="22.70" shape="108.65,128.25 131.35,128.25"/>
        <lane id=":0_16_1" index="1" speed="15.28" length="22.70" shape="108.65,124.95 131.35,124.95"/>
        <lane id=":0_16_2" index="2" speed="15.28" length="22.70" shape="108.65,121.65 131.35,121.65"/>
    </edge>
    <edge id=":0_19" function="internal">
        <lane id=":0_19_0" index="0" speed="15.28" length="7.47" shape="108.65,121.65 114.34,120.84 115.82,119.95"/>
    </edge>
    <edge id=":0_23" function="internal">
        <lane id=":0_23_0" index="0" speed="15.28" length="13.50" shape="115.82,119.95 118.40,118.40 120.84,114.34 121.65,108.65"/>
    </edge>
    <edge id=":1_0" function="internal">
        <lane id=":1_0_0" index="0" speed="15.28" length="0.10" shape="10.00,111.75 10.00,111.75"/>
        <lane id=":1_0_1" index="1" speed="15.28" length="0.10" shape="10.00,115.05 10.00,115.05"/>
        <lane id=":1_0_2" index="2" speed="15.28" length="0.10" shape="10.00,118.35 10.00,118.35"/>
    </edge>
    <edge id=":1_3" function="internal">
        <lane id=":1_3_0" index="0" speed="15.28" length="2.41" shape="10.00,118.35 8.76,119.17 8.35,120.00"/>
    </edge>
    <edge id=":1_8" function="internal">
        <lane id=":1_8_0" index="0" speed="15.28" length="2.41" shape="8.35,120.00 8.76,120.83 10.00,121.65"/>
    </edge>
    <edge id=":1_4" function="internal">
        <lane id=":1_4_0" index="0" speed="15.28" length="0.10" shape="10.00,128.25 10.00,128.25"/>
        <lane id=":1_4_1" index="1" speed="15.28" length="0.10" shape="10.00,124.95 10.00,124.95"/>
        <lane id=":1_4_2" index="2" speed="15.28" length="0.10" shape="10.00,121.65 10.00,121.65"/>
    </edge>
    <edge id=":1_7" function="internal">
        <lane id=":1_7_0" index="0" speed="15.28" length="2.41" shape="10.00,121.65 11.24,120.83 11.65,120.00"/>
    </edge>
    <edge id=":1_9" function="internal">
        <lane id=":1_9_0" index="0" speed="15.28" length="2.41" shape="11.65,120.00 11.24,119.17 10.00,118.35"/>
    </edge>
    <edge id=":2_0" function="internal">
        <lane id=":2_0_0" index="0" speed="15.28" length="0.10" shape="230.00,111.75 230.00,111.75"/>
        <lane id=":2_0_1" index="1" speed="15.28" length="0.10" shape="230.00,115.05 230.00,115.05"/>
        <lane id=":2_0_2" index="2" speed="15.28" length="0.10" shape="230.00,118.35 230.00,118.35"/>
    </edge>
    <edge id=":2_3" function="internal">
        <lane id=":2_3_0" index="0" speed="15.28" length="2.41" shape="230.00,118.35 228.76,119.17 228.35,120.00"/>
    </edge>
    <edge id=":2_8" function="internal">
        <lane id=":2_8_0" index="0" speed="15.28" length="2.41" shape="228.35,120.00 228.76,120.83 230.00,121.65"/>
    </edge>
    <edge id=":2_4" function="internal">
        <lane id=":2_4_0" index="0" speed="15.28" length="0.10" shape="230.00,128.25 230.00,128.25"/>
        <lane id=":2_4_1" index="1" speed="15.28" length="0.10" shape="230.00,124.95 230.00,124.95"/>
        <lane id=":2_4_2" index="2" speed="15.28" length="0.10" shape="230.00,121.65 230.00,121.65"/>
    </edge>
    <edge id=":2_7" function="internal">
        <lane id=":2_7_0" index="0" speed="15.28" length="2.41" shape="230.00,121.65 231.24,120.83 231.65,120.00"/>
    </edge>
    <edge id=":2_9" function="internal">
        <lane id=":2_9_0" index="0" speed="15.28" length="2.41" shape="231.65,120.00 231.24,119.17 230.00,118.35"/>
    </edge>
    <edge id=":3_0" function="internal">
        <lane id=":3_0_0" index="0" speed="15.28" length="0.10" shape="111.75,10.00 111.75,10.00"/>
        <lane id=":3_0_1" index="1" speed="15.28" length="0.10" shape="115.05,10.00 115.05,10.00"/>
        <lane id=":3_0_2" index="2" speed="15.28" length="0.10" shape="118.35,10.00 118.35,10.00"/>
    </edge>
    <edge id=":3_3" function="internal">
        <lane id=":3_3_0" index="0" speed="15.28" length="2.41" shape="118.35,10.00 119.17,11.24 120.00,11.65"/>
    </edge>
    <edge id=":3_8" function="internal">
        <lane id=":3_8_0" index="0" speed="15.28" length="2.41" shape="120.00,11.65 120.83,11.24 121.65,10.00"/>
    </edge>
    <edge id=":3_4" function="internal">
        <lane id=":3_4_0" index="0" speed="15.28" length="0.10" shape="128.25,10.00 128.25,10.00"/>
        <lane id=":3_4_1" index="1" speed="15.28" length="0.10" shape="124.95,10.00 124.95,10.00"/>
        <lane id=":3_4_2" index="2" speed="15.28" length="0.10" shape="121.65,10.00 121.65,10.00"/>
    </edge>
    <edge id=":3_7" function="internal">
        <lane id=":3_7_0" index="0" speed="15.28" length="2.41" shape="121.65,10.00 120.83,8.76 120.00,8.35"/>
    </edge>
    <edge id=":3_9" function="internal">
        <lane id=":3_9_0" index="0" speed="15.28" length="2.41" shape="120.00,8.35 119.17,8.76 118.35,10.00"/>
    </edge>
    <edge id=":4_0" function="internal">
        <lane id=":4_0_0" index="0" speed="15.28" length="0.10" shape="111.75,230.00 111.75,230.00"/>
        <lane id=":4_0_1" index="1" speed="15.28" length="0.10" shape="115.05,230.00 115.05,230.00"/>
        <lane id=":4_0_2" index="2" speed="15.28" length="0.10" shape="118.35,230.00 118.35,230.00"/>
    </edge>
    <edge id=":4_3" function="internal">
        <lane id=":4_3_0" index="0" speed="15.28" length="2.41" shape="118.35,230.00 119.17,231.24 120.00,231.65"/>
    </edge>
    <edge id=":4_8" function="internal">
        <lane id=":4_8_0" index="0" speed="15.28" length="2.41" shape="120.00,231.65 120.83,231.24 121.65,230.00"/>
    </edge>
    <edge id=":4_4" function="internal">
        <lane id=":4_4_0" index="0" speed="15.28" length="0.10" shape="128.25,230.00 128.25,230.00"/>
        <lane id=":4_4_1" index="1" speed="15.28" length="0.10" shape="124.95,230.00 124.95,230.00"/>
        <lane id=":4_4_2" index="2" speed="15.28" length="0.10" shape="121.65,230.00 121.65,230.00"/>
    </edge>
    <edge id=":4_7" function="internal">
        <lane id=":4_7_0" index="0" speed="15.28" length="2.41" shape="121.65,230.00 120.83,228.76 120.00,228.35"/>
    </edge>
    <edge id=":4_9" function="internal">
        <lane id=":4_9_0" index="0" speed="15.28" length="2.41" shape="120.00,228.35 119.17,228.76 118.35,230.00"/>
    </edge>
    <edge id=":51_0" function="internal">
        <lane id=":51_0_0" index="0" speed="15.28" length="4.82" shape="0.00,118.35 -1.24,119.17 -1.65,120.00 -1.24,120.83 0.00,121.65"/>
    </edge>
    <edge id=":52_0" function="internal">
        <lane id=":52_0_0" index="0" speed="15.28" length="4.82" shape="240.00,121.65 241.24,120.83 241.65,120.00 241.24,119.17 240.00,118.35"/>
    </edge>
    <edge id=":53_0" function="internal">
        <lane id=":53_0_0" index="0" speed="15.28" length="4.82" shape="121.65,-0.00 120.83,-1.24 120.00,-1.65 119.17,-1.24 118.35,-0.00"/>
    </edge>
    <edge id=":54_0" function="internal">
        <lane id=":54_0_0" index="0" speed="15.28" length="4.82" shape="118.35,240.00 119.17,241.24 120.00,241.65 120.83,241.24 121.65,240.00"/>
    </edge>

    <edge id="1i" from="1" to="0" priority="78">
        <lane id="1i_0" index="0" speed="19.44" length="98.65" shape="10.00,128.25 108.65,128.25"/>
        <lane id="1i_1" index="1" speed="19.44" length="98.65" shape="10.00,124.95 108.65,124.95"/>
        <lane id="1i_2" index="2" speed="19.44" length="98.65" shape="10.00,121.65 108.65,121.65"/>
    </edge>
    <edge id="1o" from="0" to="1" priority="46">
        <lane id="1o_0" index="0" speed="11.11" length="98.65" shape="108.65,111.75 10.00,111.75"/>
        <lane id="1o_1" index="1" speed="11.11" length="98.65" shape="108.65,115.05 10.00,115.05"/>
        <lane id="1o_2" index="2" speed="11.11" length="98.65" shape="108.65,118.35 10.00,118.35"/>
    </edge>
    <edge id="2i" from="2" to="0" priority="78">
        <lane id="2i_0" index="0" speed="19.44" length="98.65" shape="230.00,111.75 131.35,111.75"/>
        <lane id="2i_1" index="1" speed="19.44" length="98.65" shape="230.00,115.05 131.35,115.05"/>
        <lane id="2i_2" index="2" speed="19.44" length="98.65" shape="230.00,118.35 131.35,118.35"/>
    </edge>
    <edge id="2o" from="0" to="2" priority="46">
        <lane id="2o_0" index="0" speed="11.11" length="98.65" shape="131.35,128.25 230.00,128.25"/>
        <lane id="2o_1" index="1" speed="11.11" length="98.65" shape="131.35,124.95 230.00,124.95"/>
        <lane id="2o_2" index="2" speed="11.11" length="98.65" shape="131.35,121.65 230.00,121.65"/>
    </edge>
    <edge id="3i" from="3" to="0" priority="78">
        <lane id="3i_0" index="0" speed="19.44" length="98.65" shape="111.75,10.00 111.75,108.65"/>
        <lane id="3i_1" index="1" speed="19.44" length="98.65" shape="115.05,10.00 115.05,108.65"/>
        <lane id="3i_2" index="2" speed="19.44" length="98.65" shape="118.35,10.00 118.35,108.65"/>
    </edge>
    <edge id="3o" from="0" to="3" priority="46">
        <lane id="3o_0" index="0" speed="11.11" length="98.65" shape="128.25,108.65 128.25,10.00"/>
        <lane id="3o_1" index="1" speed="11.11" length="98.65" shape="124.95,108.65 124.95,10.00"/>
        <lane id="3o_2" index="2" speed="11.11" length="98.65" shape="121.65,108.65 121.65,10.00"/>
    </edge>
    <edge id="4i" from="4" to="0" priority="78">
        <lane id="4i_0" index="0" speed="19.44" length="98.65" shape="128.25,230.00 128.25,131.35"/>
        <lane id="4i_1" index="1" speed="19.44" length="98.65" shape="124.95,230.00 124.95,131.35"/>
        <lane id="4i_2" index="2" speed="19.44" length="98.65" shape="121.65,230.00 121.65,131.35"/>
    </edge>
    <edge id="4o" from="0" to="4" priority="46">
        <lane id="4o_0" index="0" speed="11.11" length="98.65" shape="111.75,131.35 111.75,230.00"/>
        <lane id="4o_1" index="1" speed="11.11" length="98.65" shape="115.05,131.35 115.05,230.00"/>
        <lane id="4o_2" index="2" speed="11.11" length="98.65" shape="118.35,131.35 118.35,230.00"/>
    </edge>
    <edge id="51i" from="1" to="51" priority="78">
        <lane id="51i_0" index="0" speed="19.44" length="10.00" shape="10.00,111.75 0.00,111.75"/>
        <lane id="51i_1" index="1" speed="19.44" length="10.00" shape="10.00,115.05 0.00,115.05"/>
        <lane id="51i_2" index="2" speed="19.44" length="10.00" shape="10.00,118.35 0.00,118.35"/>
    </edge>
    <edge id="51o" from="51" to="1" priority="46">
        <lane id="51o_0" index="0" speed="11.11" length="10.00" shape="0.00,128.25 10.00,128.25"/>
        <lane id="51o_1" index="1" speed="11.11" length="10.00" shape="0.00,124.95 10.00,124.95"/>
        <lane id="51o_2" index="2" speed="11.11" length="10.00" shape="0.00,121.65 10.00,121.65"/>
    </edge>
    <edge id="52i" from="2" to="52" priority="78">
        <lane id="52i_0" index="0" speed="19.44" length="10.00" shape="230.00,128.25 240.00,128.25"/>
        <lane id="52i_1" index="1" speed="19.44" length="10.00" shape="230.00,124.95 240.00,124.95"/>
        <lane id="52i_2" index="2" speed="19.44" length="10.00" shape="230.00,121.65 240.00,121.65"/>
    </edge>
    <edge id="52o" from="52" to="2" priority="46">
        <lane id="52o_0" index="0" speed="11.11" length="10.00" shape="240.00,111.75 230.00,111.75"/>
        <lane id="52o_1" index="1" speed="11.11" length="10.00" shape="240.00,115.05 230.00,115.05"/>
        <lane id="52o_2" index="2" speed="11.11" length="10.00" shape="240.00,118.35 230.00,118.35"/>
    </edge>
    <edge id="53i" from="3" to="53" priority="78">
        <lane id="53i_0" index="0" speed="19.44" length="10.00" shape="128.25,10.00 128.25,-0.00"/>
        <lane id="53i_1" index="1" speed="19.44" length="10.00" shape="124.95,10.00 124.95,-0.00"/>
        <lane id="53i_2" index="2" speed="19.44" length="10.00" shape="121.65,10.00 121.65,-0.00"/>
    </edge>
    <edge id="53o" from="53" to="3" priority="46">
        <lane id="53o_0" index="0" speed="11.11" length="10.00" shape="111.75,-0.00 111.75,10.00"/>
        <lane id="53o_1" index="1" speed="11.11" length="10.00" shape="115.05,-0.00 115.05,10.00"/>
        <lane id="53o_2" index="2" speed="11.11" length="10.00" shape="118.35,-0.00 118.35,10.00"/>
    </edge>
    <edge id="54i" from="4" to="54" priority="78">
        <lane id="54i_0" index="0" speed="19.44" length="10.00" shape="111.75,230.00 111.75,240.00"/>
        <lane id="54i_1" index="1" speed="19.44" length="10.00" shape="115.05,230.00 115.05,240.00"/>
        <lane id="54i_2" index="2" speed="19.44" length="10.00" shape="118.35,230.00 118.35,240.00"/>
    </edge>
    <edge id="54o" from="54" to="4" priority="46">
        <lane id="54o_0" index="0" speed="11.11" length="10.00" shape="128.25,240.00 128.25,230.00"/>
        <lane id="54o_1" index="1" speed="11.11" length="10.00" shape="124.95,240.00 124.95,230.00"/>
        <lane id="54o_2" index="2" speed="11.11" length="10.00" shape="121.65,240.00 121.65,230.00"/>
    </edge>

    <tlLogic id="0" type="static" programID="0" offset="0">
        <phase duration="100229" state="GGGGGrrrrrrrrrrrrrrr"/>
        <phase duration="100229" state="rrrrrGGGGGrrrrrrrrrr"/>
        <phase duration="100229" state="rrrrrrrrrrGGGGGrrrrr"/>
        <phase duration="100229" state="rrrrrrrrrrrrrrrGGGGG"/>
    </tlLogic>

    <junction id="0" type="traffic_light" x="120.00" y="120.00" incLanes="3i_0 3i_1 3i_2 2i_0 2i_1 2i_2 4i_0 4i_1 4i_2 1i_0 1i_1 1i_2" intLanes=":0_0_0 :0_1_0 :0_1_1 :0_1_2 :0_20_0 :0_5_0 :0_6_0 :0_6_1 :0_6_2 :0_21_0 :0_10_0 :0_11_0 :0_11_1 :0_11_2 :0_22_0 :0_15_0 :0_16_0 :0_16_1 :0_16_2 :0_23_0" shape="110.15,108.65 129.85,108.65 131.35,110.15 131.35,129.85 129.85,131.35 110.15,131.35 108.65,129.85 108.65,110.15">
        <request index="0" response="00000000000000000000" foes="00000100000111011100" cont="0"/>
        <request index="1" response="00000000000000000000" foes="11111100001111000000" cont="0"/>
        <request index="2" response="00000000000000000000" foes="11111100001111000000" cont="0"/>
        <request index="3" response="00000000000000000000" foes="11111100001111000000" cont="0"/>
        <request index="4" response="00000011110000000000" foes="11110011111111000111" cont="1"/>
        <request index="5" response="00000011100000000000" foes="10000011101110000000" cont="0"/>
        <request index="6" response="00000111100000011111" foes="10000111100000011111" cont="0"/>
        <request index="7" response="00000111100000011111" foes="10000111100000011111" cont="0"/>
        <request index="8" response="00000111100000011111" foes="10000111100000011111" cont="0"/>
        <request index="9" response="01111111100000011110" foes="01111111100011111110" cont="1"/>
        <request index="10" response="00000000000000000000" foes="01110111000000010000" cont="0"/>
        <request index="11" response="00000000000000000000" foes="11110000001111110000" cont="0"/>
        <request index="12" response="00000000000000000000" foes="11110000001111110000" cont="0"/>
        <request index="13" response="00000000000000000000" foes="11110000001111110000" cont="0"/>
        <request index="14" response="00000000000000001111" foes="11110001111111001111" cont="1"/>
        <request index="15" response="00000000000000001110" foes="11100000001000001110" cont="0"/>
        <request index="16" response="00000111110000011110" foes="00000111111000011110" cont="0"/>
        <request index="17" response="00000111110000011110" foes="00000111111000011110" cont="0"/>
        <request index="18" response="00000111110000011110" foes="00000111111000011110" cont="0"/>
        <request index="19" response="00000111100111111110" foes="00111111100111111110" cont="1"/>
    </junction>
    <junction id="1" type="priority" x="10.00" y="120.00" incLanes="1o_0 1o_1 1o_2 51o_0 51o_1 51o_2" intLanes=":1_0_0 :1_0_1 :1_0_2 :1_8_0 :1_4_0 :1_4_1 :1_4_2 :1_9_0" shape="10.00,110.15 10.00,129.85 10.00,110.15">
        <request index="0" response="00000000" foes="10000000" cont="0"/>
        <request index="1" response="00000000" foes="10000000" cont="0"/>
        <request index="2" response="00000000" foes="10000000" cont="0"/>
        <request index="3" response="01110000" foes="01110000" cont="1"/>
        <request index="4" response="00000000" foes="00001000" cont="0"/>
        <request index="5" response="00000000" foes="00001000" cont="0"/>
        <request index="6" response="00000000" foes="00001000" cont="0"/>
        <request index="7" response="00000111" foes="00000111" cont="1"/>
    </junction>
    <junction id="2" type="priority" x="230.00" y="120.00" incLanes="52o_0 52o_1 52o_2 2o_0 2o_1 2o_2" intLanes=":2_0_0 :2_0_1 :2_0_2 :2_8_0 :2_4_0 :2_4_1 :2_4_2 :2_9_0" shape="230.00,110.15 230.00,129.85 230.00,110.15">
        <request index="0" response="00000000" foes="10000000" cont="0"/>
        <request index="1" response="00000000" foes="10000000" cont="0"/>
        <request index="2" response="00000000" foes="10000000" cont="0"/>
        <request index="3" response="01110000" foes="01110000" cont="1"/>
        <request index="4" response="00000000" foes="00001000" cont="0"/>
        <request index="5" response="00000000" foes="00001000" cont="0"/>
        <request index="6" response="00000000" foes="00001000" cont="0"/>
        <request index="7" response="00000111" foes="00000111" cont="1"/>
    </junction>
    <junction id="3" type="priority" x="120.00" y="10.00" incLanes="53o_0 53o_1 53o_2 3o_0 3o_1 3o_2" intLanes=":3_0_0 :3_0_1 :3_0_2 :3_8_0 :3_4_0 :3_4_1 :3_4_2 :3_9_0" shape="110.15,10.00 129.85,10.00 110.15,10.00">
        <request index="0" response="00000000" foes="10000000" cont="0"/>
        <request index="1" response="00000000" foes="10000000" cont="0"/>
        <request index="2" response="00000000" foes="10000000" cont="0"/>
        <request index="3" response="01110000" foes="01110000" cont="1"/>
        <request index="4" response="00000000" foes="00001000" cont="0"/>
        <request index="5" response="00000000" foes="00001000" cont="0"/>
        <request index="6" response="00000000" foes="00001000" cont="0"/>
        <request index="7" response="00000111" foes="00000111" cont="1"/>
    </junction>
    <junction id="4" type="priority" x="120.00" y="230.00" incLanes="4o_0 4o_1 4o_2 54o_0 54o_1 54o_2" intLanes=":4_0_0 :4_0_1 :4_0_2 :4_8_0 :4_4_0 :4_4_1 :4_4_2 :4_9_0" shape="110.15,230.00 129.85,230.00 110.15,230.00">
        <request index="0" response="00000000" foes="10000000" cont="0"/>
        <request index="1" response="00000000" foes="10000000" cont="0"/>
        <request index="2" response="00000000" foes="10000000" cont="0"/>
        <request index="3" response="01110000" foes="01110000" cont="1"/>
        <request index="4" response="00000000" foes="00001000" cont="0"/>
        <request index="5" response="00000000" foes="00001000" cont="0"/>
        <request index="6" response="00000000" foes="00001000" cont="0"/>
        <request index="7" response="00000111" foes="00000111" cont="1"/>
    </junction>
    <junction id="51" type="priority" x="0.00" y="120.00" incLanes="51i_0 51i_1 51i_2" intLanes=":51_0_0" shape="0.00,120.05 0.00,110.15 0.00,119.95">
        <request index="0" response="0" foes="0" cont="0"/>
    </junction>
    <junction id="52" type="priority" x="240.00" y="120.00" incLanes="52i_0 52i_1 52i_2" intLanes=":52_0_0" shape="240.00,119.95 240.00,129.85 240.00,120.05">
        <request index="0" response="0" foes="0" cont="0"/>
    </junction>
    <junction id="53" type="priority" x="120.00" y="-0.00" incLanes="53i_0 53i_1 53i_2" intLanes=":53_0_0" shape="119.95,-0.00 129.85,-0.00 120.05,-0.00">
        <request index="0" response="0" foes="0" cont="0"/>
    </junction>
    <junction id="54" type="priority" x="120.00" y="240.00" incLanes="54i_0 54i_1 54i_2" intLanes=":54_0_0" shape="120.05,240.00 110.15,240.00 119.95,240.00">
        <request index="0" response="0" foes="0" cont="0"/>
    </junction>

    <junction id=":0_20_0" type="internal" x="120.05" y="115.82" incLanes=":0_4_0 4i_0 4i_1 4i_2" intLanes=":0_6_0 :0_6_1 :0_6_2 :0_9_0 :0_10_0 :0_11_0 :0_11_1 :0_11_2 :0_16_0 :0_16_1 :0_16_2 :0_19_0"/>
    <junction id=":0_21_0" type="internal" x="124.18" y="120.05" incLanes=":0_9_0 1i_0 1i_1 1i_2" intLanes=":0_1_0 :0_1_1 :0_1_2 :0_4_0 :0_11_0 :0_11_1 :0_11_2 :0_14_0 :0_15_0 :0_16_0 :0_16_1 :0_16_2"/>
    <junction id=":0_22_0" type="internal" x="119.95" y="124.18" incLanes=":0_14_0 3i_0 3i_1 3i_2" intLanes=":0_0_0 :0_1_0 :0_1_1 :0_1_2 :0_6_0 :0_6_1 :0_6_2 :0_9_0 :0_16_0 :0_16_1 :0_16_2 :0_19_0"/>
    <junction id=":0_23_0" type="internal" x="115.82" y="119.95" incLanes=":0_19_0 2i_0 2i_1 2i_2" intLanes=":0_1_0 :0_1_1 :0_1_2 :0_4_0 :0_5_0 :0_6_0 :0_6_1 :0_6_2 :0_11_0 :0_11_1 :0_11_2 :0_14_0"/>
    <junction id=":1_8_0" type="internal" x="8.35" y="120.00" incLanes=":1_3_0 51o_0 51o_1 51o_2" intLanes=":1_4_0 :1_4_1 :1_4_2"/>
    <junction id=":1_9_0" type="internal" x="11.65" y="120.00" incLanes=":1_7_0 1o_0 1o_1 1o_2" intLanes=":1_0_0 :1_0_1 :1_0_2"/>
    <junction id=":2_8_0" type="internal" x="228.35" y="120.00" incLanes=":2_3_0 2o_0 2o_1 2o_2" intLanes=":2_4_0 :2_4_1 :2_4_2"/>
    <junction id=":2_9_0" type="internal" x="231.65" y="120.00" incLanes=":2_7_0 52o_0 52o_1 52o_2" intLanes=":2_0_0 :2_0_1 :2_0_2"/>
    <junction id=":3_8_0" type="internal" x="120.00" y="11.65" incLanes=":3_3_0 3o_0 3o_1 3o_2" intLanes=":3_4_0 :3_4_1 :3_4_2"/>
    <junction id=":3_9_0" type="internal" x="120.00" y="8.35" incLanes=":3_7_0 53o_0 53o_1 53o_2" intLanes=":3_0_0 :3_0_1 :3_0_2"/>
    <junction id=":4_8_0" type="internal" x="120.00" y="231.65" incLanes=":4_3_0 54o_0 54o_1 54o_2" intLanes=":4_4_0 :4_4_1 :4_4_2"/>
    <junction id=":4_9_0" type="internal" x="120.00" y="228.35" incLanes=":4_7_0 4o_0 4o_1 4o_2" intLanes=":4_0_0 :4_0_1 :4_0_2"/>

    <connection from="1i" to="4o" fromLane="0" toLane="0" via=":0_15_0" tl="0" linkIndex="15" dir="l" state="o"/>
    <connection from="1i" to="2o" fromLane="0" toLane="0" via=":0_16_0" tl="0" linkIndex="16" dir="s" state="o"/>
    <connection from="1i" to="2o" fromLane="1" toLane="1" via=":0_16_1" tl="0" linkIndex="17" dir="s" state="o"/>
    <connection from="1i" to="2o" fromLane="2" toLane="2" via=":0_16_2" tl="0" linkIndex="18" dir="s" state="o"/>
    <connection from="1i" to="3o" fromLane="2" toLane="2" via=":0_19_0" tl="0" linkIndex="19" dir="r" state="o"/>
    <connection from="1o" to="51i" fromLane="0" toLane="0" via=":1_0_0" dir="s" state="M"/>
    <connection from="1o" to="51i" fromLane="1" toLane="1" via=":1_0_1" dir="s" state="M"/>
    <connection from="1o" to="51i" fromLane="2" toLane="2" via=":1_0_2" dir="s" state="M"/>
    <connection from="1o" to="1i" fromLane="2" toLane="2" via=":1_3_0" dir="T" state="m"/>
    <connection from="2i" to="3o" fromLane="0" toLane="0" via=":0_5_0" tl="0" linkIndex="5" dir="l" state="o"/>
    <connection from="2i" to="1o" fromLane="0" toLane="0" via=":0_6_0" tl="0" linkIndex="6" dir="s" state="o"/>
    <connection from="2i" to="1o" fromLane="1" toLane="1" via=":0_6_1" tl="0" linkIndex="7" dir="s" state="o"/>
    <connection from="2i" to="1o" fromLane="2" toLane="2" via=":0_6_2" tl="0" linkIndex="8" dir="s" state="o"/>
    <connection from="2i" to="4o" fromLane="2" toLane="2" via=":0_9_0" tl="0" linkIndex="9" dir="r" state="o"/>
    <connection from="2o" to="52i" fromLane="0" toLane="0" via=":2_4_0" dir="s" state="M"/>
    <connection from="2o" to="52i" fromLane="1" toLane="1" via=":2_4_1" dir="s" state="M"/>
    <connection from="2o" to="52i" fromLane="2" toLane="2" via=":2_4_2" dir="s" state="M"/>
    <connection from="2o" to="2i" fromLane="2" toLane="2" via=":2_7_0" dir="T" state="m"/>
    <connection from="3i" to="1o" fromLane="0" toLane="0" via=":0_0_0" tl="0" linkIndex="0" dir="l" state="o"/>
    <connection from="3i" to="4o" fromLane="0" toLane="0" via=":0_1_0" tl="0" linkIndex="1" dir="s" state="o"/>
    <connection from="3i" to="4o" fromLane="1" toLane="1" via=":0_1_1" tl="0" linkIndex="2" dir="s" state="o"/>
    <connection from="3i" to="4o" fromLane="2" toLane="2" via=":0_1_2" tl="0" linkIndex="3" dir="s" state="o"/>
    <connection from="3i" to="2o" fromLane="2" toLane="2" via=":0_4_0" tl="0" linkIndex="4" dir="r" state="o"/>
    <connection from="3o" to="53i" fromLane="0" toLane="0" via=":3_4_0" dir="s" state="M"/>
    <connection from="3o" to="53i" fromLane="1" toLane="1" via=":3_4_1" dir="s" state="M"/>
    <connection from="3o" to="53i" fromLane="2" toLane="2" via=":3_4_2" dir="s" state="M"/>
    <connection from="3o" to="3i" fromLane="2" toLane="2" via=":3_7_0" dir="T" state="m"/>
    <connection from="4i" to="2o" fromLane="0" toLane="0" via=":0_10_0" tl="0" linkIndex="10" dir="l" state="o"/>
    <connection from="4i" to="3o" fromLane="0" toLane="0" via=":0_11_0" tl="0" linkIndex="11" dir="s" state="o"/>
    <connection from="4i" to="3o" fromLane="1" toLane="1" via=":0_11_1" tl="0" linkIndex="12" dir="s" state="o"/>
    <connection from="4i" to="3o" fromLane="2" toLane="2" via=":0_11_2" tl="0" linkIndex="13" dir="s" state="o"/>
    <connection from="4i" to="1o" fromLane="2" toLane="2" via=":0_14_0" tl="0" linkIndex="14" dir="r" state="o"/>
    <connection from="4o" to="54i" fromLane="0" toLane="0" via=":4_0_0" dir="s" state="M"/>
    <connection from="4o" to="54i" fromLane="1" toLane="1" via=":4_0_1" dir="s" state="M"/>
    <connection from="4o" to="54i" fromLane="2" toLane="2" via=":4_0_2" dir="s" state="M"/>
    <connection from="4o" to="4i" fromLane="2" toLane="2" via=":4_3_0" dir="T" state="m"/>
    <connection from="51i" to="51o" fromLane="2" toLane="2" via=":51_0_0" dir="T" state="M"/>
    <connection from="51o" to="1i" fromLane="0" toLane="0" via=":1_4_0" dir="s" state="M"/>
    <connection from="51o" to="1i" fromLane="1" toLane="1" via=":1_4_1" dir="s" state="M"/>
    <connection from="51o" to="1i" fromLane="2" toLane="2" via=":1_4_2" dir="s" state="M"/>
    <connection from="51o" to="51i" fromLane="2" toLane="2" via=":1_7_0" dir="T" state="m"/>
    <connection from="52i" to="52o" fromLane="2" toLane="2" via=":52_0_0" dir="T" state="M"/>
    <connection from="52o" to="2i" fromLane="0" toLane="0" via=":2_0_0" dir="s" state="M"/>